
 *******************************************************************************

         NASA-GLENN CHEMICAL EQUILIBRIUM PROGRAM CEA2, MAY 21, 2004
                   BY  BONNIE MCBRIDE AND SANFORD GORDON
      REFS: NASA RP-1311, PART I, 1994 AND NASA RP-1311, PART II, 1996

 *******************************************************************************



 prob
 case=saturn tp
 t,k= 350,400,450,500,550,600,650,700,750
 p,bar= 22.20, 34.89, 52.02, 74.41, 102.88, 138.33, 181.70, 234.00, 296.30
 react
   name=H2 moles=1.0
   name=He moles=0.135
 #  name=CH4 moles=5.33e-3
   name=N2 moles = 2.27e-4
   name=H2S moles=3.76e-4
 #  name=PH3 moles = 7.28e-6
  
 # ten time solar water
   name=O2 moles = 4.9e-3
 # all others are ten time solar
   name=HF moles = 7.26e-7
 #  name=Na moles = 3.48e-5
   name=Mg moles = 7.96e-4
   name=Si moles=6.47e-4
  
   name=HCL moles = 6.32e-6
 #  name=K moles = 2.14e-6
 #  name=Ca moles = 4.38e-5
 #  name=GeH4 moles = 8.93e-8
   name=HBr moles=6.93e-9
  
 output    trace = 1e-20
 plot t p Mg2SiO4(cr) MgSiO3(I) MgSiO3(II) MgSiO3(III) MgSiO3(L) SiO2 SiO SiH4 Si
 H3 SiH2
  
 end

 OPTIONS: TP=T  HP=F  SP=F  TV=F  UV=F  SV=F  DETN=F  SHOCK=F  REFL=F  INCD=F
 RKT=F  FROZ=F  EQL=F  IONS=F  SIUNIT=T  DEBUGF=F  SHKDBG=F  DETDBG=F  TRNSPT=F

 T,K =   350.0000   400.0000   450.0000   500.0000   550.0000   600.0000   650.0000

 T,K =   700.0000   750.0000

 TRACE= 1.00E-20  S/R= 0.000000E+00  H/R= 0.000000E+00  U/R= 0.000000E+00

 P,BAR =    22.200000    34.890000    52.020000    74.410000   102.880000   138.330000   181.700000

 P,BAR =   234.000000   296.300000

    REACTANT           MOLES    (ENERGY/R),K   TEMP,K  DENSITY
        EXPLODED FORMULA
 N: H2               1.000000   0.000000E+00     0.00  0.0000
          H  2.00000
 N: He               0.135000   0.000000E+00     0.00  0.0000
          HE 1.00000
 N: N2               0.000227   0.000000E+00     0.00  0.0000
          N  2.00000
 N: H2S              0.000376   0.000000E+00     0.00  0.0000
          H  2.00000  S  1.00000
 N: O2               0.004900   0.000000E+00     0.00  0.0000
          O  2.00000
 N: HF               0.000001   0.000000E+00     0.00  0.0000
          H  1.00000  F  1.00000
 N: Mg               0.000796   0.000000E+00     0.00  0.0000
          MG 1.00000
 N: Si               0.000647   0.000000E+00     0.00  0.0000
          SI 1.00000
 N: HCL              0.000006   0.000000E+00     0.00  0.0000
          H  1.00000  CL 1.00000
 N: HBr              0.000000   0.000000E+00     0.00  0.0000
          H  1.00000  BR 1.00000

  SPECIES BEING CONSIDERED IN THIS SYSTEM
 (CONDENSED PHASE MAY HAVE NAME LISTED SEVERAL TIMES)
  LAST thermo.inp UPDATE:    9/09/04

  g 3/97  *Br              tpis89  BrCL             tpis89  BrF            
  tpis89  BrF3             tpis89  BrF5             j 3/96  BrO            
  j 3/96  OBrO             j 3/96  BrOO             j 3/96  BrO3           
  tpis89  Br2              j 3/96  BrBrO            j 3/96  BrOBr          
  g 7/97  *CL              tpis89  CLF              tpis89  CLF3           
  tpis89  CLF5             tpis89  CLO              g 7/93  CLO2           
  tpis89  CL2              tpis89  CL2O             g 5/97  *F             
  j 9/95  FO               j 9/95  FO2,FOO          j 9/95  FO2,OFO        
  tpis89  F2               g 4/99  F2O              j 9/95  F2O2           
  j 6/76  FS2F             g 6/97  *H               tpis89  HBr            
  tpis89  HCL              tpis89  *HF              g10/01  HNO            
  tpis89  HNO2             g 5/99  HNO3             g 1/01  HOCL           
  tpis89  HOF              g 4/02  HO2              j 6/72  HSO3F          
  tpis78  *H2              tpis89  H2F2             g 8/89  H2O            
  g 6/99  H2O2             g 4/01  H2S              tpis89  H2SO4          
  tpis89  H3F3             tpis89  H4F4             tpis89  H5F5           
  tpis89  H6F6             tpis89  H7F7             g 5/97  *He            
  g 6/97  *Mg              tpis96  MgBr             tpis96  MgBr2          
  tpis96  MgCL             tpis96  MgCL2            tpis96  MgF            
  tpis96  MgF2             tpis96  MgH              j 3/64  MgN            
  tpis96  *MgO             tpis96  MgOH             tpis96  Mg(OH)2        
  tpis96  MgS              tpis96  Mg2              j12/75  Mg2F4          
  g 5/97  *N               tpis89  NF               g 4/99  NF2            
  g 4/99  NF3              g 4/99  *NH              tpis89  NHF            
  tpis89  NHF2             g 3/01  NH2              tpis89  NH2F           
  tpis89  NH3              tpis89  NH2OH            tpis89  *NO            
  g 4/99  NOCL             g 4/99  NOF              tpis89  NOF3           
  g 4/99  NO2              g 4/99  NO2CL            g 4/99  NO2F           
  j12/64  NO3              tpis89  NO3F             tpis78  *N2            
  tpis89  N2F2             tpis89  N2F4             g 5/99  N2H2           
  tpis89  NH2NO2           g 4/99  N2H4             g 4/99  N2O            
  g 4/99  N2O3             tpis89  N2O4             g 4/99  N2O5           
  tpis89  N3               g 4/99  N3H              g 5/97  *O             
  g 4/02  *OH              tpis89  *O2              g 8/01  O3             
  g 5/97  *S               j 6/78  SCL              j 6/78  SCL2           
  tpis89  SF               tpis89  SF2              tpis89  SF3            
  tpis89  SF4              tpis89  SF5              tpis89  SF6            
  g10/01  SH               tpis89  SN               tpis89  SO             
  tpis89  SOF2             tpis89  SO2              j 6/71  SO2CL2         
  j 6/71  SO2FCL           tpis89  SO2F2            tpis89  SO3            
  tpis89  S2               g12/00  S2CL2            j 6/76  S2F2           
  tpis89  S2O              tpis89  S3               tpis89  S4             
  tpis89  S5               tpis89  S6               tpis89  S7             
  tpis89  S8               g 8/97  *Si              tpis91  SiBr           
  tpis91  SiBr2            tpis91  SiBr3            tpis91  SiBr4          
  tpis91  SiCL             tpis91  SiCL2            tpis91  SiCL3          
  tpis91  SiCL4            tpis91  SiF              tpis91  SiFCL          
  tpis91  SiF2             tpis91  SiF3             g 6/01  SiF4           
  tpis91  SiH              j12/76  SiHBr3           tpis91  SiHCL          
  j12/76  SiHCL3           tpis91  SiHF             j 6/76  SiHF3          
  g 3/01  SiH2             j12/76  SiH2Br2          j12/76  SiH2CL2        
  j 6/76  SiH2F2           g 3/99  SiH3             j12/76  SiH3Br         
  j12/76  SiH3CL           j 6/76  SiH3F            tpis91  SiH4           
  g 5/99  SiN              tpis91  SiO              tpis91  SiO2           
  tpis91  SiS              tpis91  SiS2             tpis91  Si2            
  g 6/01  Si2F6            j 3/67  Si2N             g 7/95  Si3            
  g 8/01  Br2(cr)          g 8/01  Br2(L)           g 8/01  Br2(L)         
  g11/99  H2O(cr)          g 8/01  H2O(L)           g 8/01  H2O(L)         
  j 9/77  H2SO4(L)         srd 93  Mg(cr)           srd 93  Mg(cr)         
  srd 93  Mg(L)            tpis96  MgBr2(cr)        tpis96  MgBr2(L)       
  tpis96  MgCL2(cr)        tpis96  MgCL2(cr)        tpis96  MgCL2(L)       
  tpis96  MgF2(cr)         tpis96  MgF2(cr)         tpis96  MgF2(L)        
  tpis96  MgH2(b)          tpis96  MgH2(L)          tpis96  MgO(cr)        
  tpis96  MgO(cr)          tpis96  MgO(L)           tpis96  Mg(OH)2(cr)    
  tpis96  Mg(OH)2(cr)      tpis96  Mg(OH)2(L)       tpis96  MgS(cr)        
  tpis96  MgS(cr)          tpis96  MgS(L)           tpis96  MgSO4(II)      
  tpis96  MgSO4(II)        tpis96  MgSO4(I)         tpis96  MgSO4(L)       
  j12/67  MgSiO3(I)        j12/67  MgSiO3(II)       j12/67  MgSiO3(III)    
  j12/67  MgSiO3(L)        g11/00  Mg2SiO4(cr)      g11/00  Mg2SiO4(cr)    
  g11/00  Mg2SiO4(L)       tpis96  Mg3N2(cr)        j 9/65  NH4CL(II)      
  j 9/65  NH4CL(III)       j 9/65  NH4CL(III)       tpis89  NH4F(cr)       
  tpis89  NH4F(cr)         tpis89  NH4F(L)          tpis89  S(a)           
  tpis89  S(b)             tpis89  S(L)             tpis89  S(L)           
  tpis89  S(L)             tpis89  S(L)             tpis89  S(L)           
  j 6/78  SCL2(L)          j 6/78  S2CL2(L)         tpis91  Si(cr)         
  tpis91  Si(cr)           tpis91  Si(L)            tpis91  SiO2(a-qz)     
  tpis91  SiO2(b-qz)       tpis91  SiO2(b-crt)      tpis91  SiO2(L)        
  tpis91  SiS(cr)          tpis91  SiS(L)           tpis91  SiS2(cr)       
  tpis91  SiS2(cr)         tpis91  SiS2(L)          g 7/95  Si2N2O(cr)     
  g 7/95  Si2N2O(cr)       tpis91  Si3N4(cr)        tpis91  Si3N4(cr)      

 O/F =   0.000000

                       EFFECTIVE FUEL     EFFECTIVE OXIDANT        MIXTURE
 ENTHALPY                  h(2)/R              h(1)/R               h0/R
 (KG-MOL)(K)/KG        0.00000000E+00      0.00000000E+00      0.00000000E+00

 KG-FORM.WT./KG             bi(2)               bi(1)               b0i
  *H                   0.72230548E+00      0.00000000E+00      0.72230548E+00
  *He                  0.48737123E-01      0.00000000E+00      0.48737123E-01
  *N                   0.16390114E-03      0.00000000E+00      0.16390114E-03
  *S                   0.13574191E-03      0.00000000E+00      0.13574191E-03
  *O                   0.35379541E-02      0.00000000E+00      0.35379541E-02
  *F                   0.26209741E-06      0.00000000E+00      0.26209741E-06
  *Mg                  0.28736852E-03      0.00000000E+00      0.28736852E-03
  *Si                  0.23357717E-03      0.00000000E+00      0.23357717E-03
  *CL                  0.22816194E-05      0.00000000E+00      0.22816194E-05
  *Br                  0.25018390E-08      0.00000000E+00      0.25018390E-08

 POINT ITN      T            H           HE          N           S 
                    O           F           MG          SI          CL
                    BR
   1   47     350.000      -6.398     -14.232     -24.553     -24.002
                 -94.891    -158.629     -24.055       8.517     -78.110
                 -66.821
 ADD  Mg2SiO4(cr)    
   1   10     350.000      -6.398     -14.232     -24.555     -24.001
                 -94.893    -157.653    -193.851       7.536     -76.348
                 -62.690
 ADD  SiO2(a-qz)     
   1   24     350.000      -6.397     -14.232     -24.556     -24.001
                 -94.957    -119.632    -125.912    -128.087     -56.843
                 -45.828
 ADD  MgF2(cr)       
   1    2     350.000      -6.397     -14.232     -24.556     -24.001
                 -94.957    -133.686    -125.912    -128.088     -56.844
                 -45.828
 ADD  NH4CL(II)      
   1    4     350.000      -6.397     -14.232     -24.570     -24.001
                 -94.957    -133.686    -125.912    -128.088     -69.471
                 -45.828
 ADD  MgSiO3(I)      

 SINGULAR MATRIX, ITERATION  0  VARIABLE 16(EQLBRM)

 TRY REMOVING CONDENSED SPECIES (EQLBRM)
 REMOVE  MgF2(cr)       

 SINGULAR MATRIX, ITERATION  0  VARIABLE 15(EQLBRM)

 TRY REMOVING CONDENSED SPECIES (EQLBRM)
 REMOVE  SiO2(a-qz)     
   1   10     350.000      -6.397     -14.232     -24.570     -24.001
                 -94.957    -119.623    -124.248    -131.415     -69.471
                 -45.828
 ADD  MgF2(cr)       
   1    2     350.000      -6.397     -14.232     -24.570     -24.001
                 -94.957    -134.518    -124.248    -131.415     -69.471
                 -45.828
   2    2     400.000      -6.445     -14.300     -22.575     -23.135
                 -84.585    -118.721    -107.767    -112.764     -58.069
                 -44.317
   3    2     450.000      -6.506     -14.387     -21.014     -22.472
                 -76.526    -106.460     -95.012     -98.326     -49.284
                 -43.166
 PHASE CHANGE, REPLACE  NH4CL(II)      WITH  NH4CL(III)     
   4    7     500.000      -6.575     -14.486     -19.017     -21.951
                 -70.087     -96.673     -84.862     -86.831     -43.147
                 -42.265
 REMOVE  NH4CL(III)     
   4    6     500.000      -6.574     -14.485     -19.747     -21.951
                 -70.087     -96.673     -84.862     -86.831     -47.505
                 -42.265
   5    2     550.000      -6.646     -14.588     -18.720     -21.534
                 -64.825     -88.683     -76.602     -77.472     -45.559
                 -41.544
   6    2     600.000      -6.720     -14.692     -17.864     -21.195
                 -60.446     -82.040     -69.757     -69.712     -43.951
                 -40.957
   7    2     650.000      -6.793     -14.797     -17.146     -20.915
                 -56.746     -76.432     -63.998     -63.180     -42.601
                 -40.472
 REMOVE  MgF2(cr)       
   7    2     650.000      -6.793     -14.797     -17.146     -20.915
                 -56.746     -76.674     -63.998     -63.180     -42.601
                 -40.472
   8    4     700.000      -6.866     -14.900     -16.547     -20.682
                 -53.579     -73.134     -59.089     -57.610     -41.455
                 -40.066




               THERMODYNAMIC EQUILIBRIUM PROPERTIES AT ASSIGNED

                           TEMPERATURE AND PRESSURE

 CASE = saturn         

             REACTANT                       MOLES         ENERGY      TEMP
                                                         KJ/KG-MOL      K
 NAME        H2                           1.0000000         0.000      0.000
 NAME        He                           0.1350000         0.000      0.000
 NAME        N2                           0.0002270         0.000      0.000
 NAME        H2S                          0.0003760         0.000      0.000
 NAME        O2                           0.0049000         0.000      0.000
 NAME        HF                           0.0000007         0.000      0.000
 NAME        Mg                           0.0007960         0.000      0.000
 NAME        Si                           0.0006470         0.000      0.000
 NAME        HCL                          0.0000063         0.000      0.000
 NAME        HBr                          0.0000000         0.000      0.000

 O/F=    0.00000  %FUEL=  0.000000  R,EQ.RATIO=*********  PHI,EQ.RATIO= 0.000000

 THERMODYNAMIC PROPERTIES

 P, BAR            22.200   22.200   22.200   22.200   22.200   22.200   22.200   22.200
 T, K              350.00   400.00   450.00   500.00   550.00   600.00   650.00   700.00
 RHO, KG/CU M    1.8615 0 1.6288 0 1.4479 0 1.3031 0 1.1846 0 1.0859 0 1.0024 0 9.3075-1
 H, KJ/KG         -482.74   96.074   676.24  1257.45  1838.82  2420.91  3004.01  3588.48
 U, KJ/KG        -1675.30 -1266.85  -857.06  -446.23  -35.225   376.49   789.22  1203.30
 G, KJ/KG        -16658.3 -19008.5 -21431.4 -23919.0 -26464.8 -29063.6 -31710.9 -34403.2
 S, KJ/(KG)(K)    46.2158  47.7615  49.1282  50.3530  51.4612  52.4741  53.4076  54.2738

 M, (1/n)           2.440    2.440    2.440    2.440    2.440    2.440    2.440    2.440
 MW, MOL WT         2.439    2.439    2.439    2.439    2.439    2.439    2.439    2.439
 (dLV/dLP)t      -1.00000 -1.00000 -1.00000 -1.00000 -1.00000 -1.00000 -1.00001 -1.00002
 (dLV/dLT)p        1.0000   1.0000   1.0000   1.0000   1.0000   1.0000   1.0001   1.0002
 Cp, KJ/(KG)(K)   11.5539  11.5934  11.6114  11.6217  11.6337  11.6507  11.6741  11.7060
 GAMMAs            1.4183   1.4162   1.4153   1.4148   1.4142   1.4134   1.4122   1.4108
 SON VEL,M/SEC     1300.5   1389.3   1473.1   1552.5   1628.0   1699.9   1768.6   1834.4

 MOLE FRACTIONS

 *Br             1.623-29 4.922-28 1.532-26 7.519-23 1.978-21 3.034-20 3.071-19 2.241-18
 *CL             0.000  0 7.847-38 6.070-34 1.289-26 1.431-24 7.301-23 2.046-21 3.581-20
 *H              2.222-31 3.348-29 5.233-27 1.380-21 1.673-19 9.167-18 2.726-16 5.014-15
 HBr             6.1014-9 6.1014-9 6.1014-9 6.1014-9 6.1014-9 6.1014-9 6.1014-9 6.1013-9
 HCL             1.826-11 9.968-10 5.442 -8 5.565 -6 5.564 -6 5.564 -6 5.564 -6 5.564 -6
 *HF             2.172-13 1.949-12 1.772-11 4.110 -9 3.308 -8 1.878 -7 6.392 -7 6.392 -7
 *H2             8.7305-1 8.7305-1 8.7305-1 8.7305-1 8.7305-1 8.7305-1 8.7305-1 8.7305-1
 H2F2            9.446-26 4.463-24 2.161-22 3.130-18 1.235-16 2.645-15 2.179-14 1.633-14
 H2O             6.7885-3 6.7885-3 6.7885-3 6.7885-3 6.7885-3 6.7884-3 6.7881-3 6.7881-3
 H2S             3.3105-4 3.3105-4 3.3105-4 3.3104-4 3.3104-4 3.3104-4 3.3104-4 3.3104-4
 *He             1.1886-1 1.1886-1 1.1886-1 1.1886-1 1.1886-1 1.1886-1 1.1886-1 1.1886-1
 MgCL2           0.000  0 2.296-37 3.557-32 6.292-24 2.579-22 5.637-21 7.597-20 7.005-19
 NH2             2.552-36 5.748-34 1.350-31 9.946-26 1.788-23 1.362-21 5.328-20 1.221-18
 NH3             3.9416-4 3.9416-4 3.9417-4 3.9971-4 3.9963-4 3.9916-4 3.9700-4 3.8927-4
 *N2             2.182-13 1.938-12 1.795-11 4.815 -9 4.343 -8 2.786 -7 1.360 -6 5.220 -6
 SH              2.982-26 1.277-24 5.639-23 6.616-19 2.447-17 4.992-16 6.438-15 5.786-14
 S2              3.573-30 1.830-28 9.752-27 1.855-22 8.418-21 2.056-19 3.110-18 3.223-17
 SiF4            7.150-37 6.306-34 5.720-31 1.106-23 6.648-21 1.355-18 4.568-17 1.391-17
 SiHF3           0.000  0 0.000  0 1.198-36 2.979-28 4.700-25 2.127-22 1.785-20 3.377-20
 MgF2(cr)        3.1960-7 3.1960-7 3.1959-7 3.1754-7 3.0332-7 2.2571-7 0.0000 0 0.0000 0
 MgSiO3(I)       4.3878-4 4.3878-4 4.3878-4 4.3877-4 4.3876-4 4.3868-4 4.3846-4 4.3845-4
 Mg2SiO4(cr)     1.3087-4 1.3087-4 1.3087-4 1.3087-4 1.3088-4 1.3096-4 1.3118-4 1.3118-4
 NH4CL(II)       5.5644-6 5.5640-6 5.5458-6 0.0000 0 0.0000 0 0.0000 0 0.0000 0 0.0000 0

  * THERMODYNAMIC PROPERTIES FITTED TO 20000.K

    PRODUCTS WHICH WERE CONSIDERED BUT WHOSE MOLE FRACTIONS
    WERE LESS THAN 1.000000E-20 FOR ALL ASSIGNED CONDITIONS

 BrCL            BrF             BrF3            BrF5            BrO            
 OBrO            BrOO            BrO3            Br2             BrBrO          
 BrOBr           CLF             CLF3            CLF5            CLO            
 CLO2            CL2             CL2O            *F              FO             
 FO2,FOO         FO2,OFO         F2              F2O             F2O2           
 FS2F            HNO             HNO2            HNO3            HOCL           
 HOF             HO2             HSO3F           H2O2            H2SO4          
 H3F3            H4F4            H5F5            H6F6            H7F7           
 *Mg             MgBr            MgBr2           MgCL            MgF            
 MgF2            MgH             MgN             *MgO            MgOH           
 Mg(OH)2         MgS             Mg2             Mg2F4           *N             
 NF              NF2             NF3             *NH             NHF            
 NHF2            NH2F            NH2OH           *NO             NOCL           
 NOF             NOF3            NO2             NO2CL           NO2F           
 NO3             NO3F            N2F2            N2F4            N2H2           
 NH2NO2          N2H4            N2O             N2O3            N2O4           
 N2O5            N3              N3H             *O              *OH            
 *O2             O3              *S              SCL             SCL2           
 SF              SF2             SF3             SF4             SF5            
 SF6             SN              SO              SOF2            SO2            
 SO2CL2          SO2FCL          SO2F2           SO3             S2CL2          
 S2F2            S2O             S3              S4              S5             
 S6              S7              S8              *Si             SiBr           
 SiBr2           SiBr3           SiBr4           SiCL            SiCL2          
 SiCL3           SiCL4           SiF             SiFCL           SiF2           
 SiF3            SiH             SiHBr3          SiHCL           SiHCL3         
 SiHF            SiH2            SiH2Br2         SiH2CL2         SiH2F2         
 SiH3            SiH3Br          SiH3CL          SiH3F           SiH4           
 SiN             SiO             SiO2            SiS             SiS2           
 Si2             Si2F6           Si2N            Si3             Br2(cr)        
 Br2(L)          H2O(cr)         H2O(L)          H2SO4(L)        Mg(cr)         
 Mg(L)           MgBr2(cr)       MgBr2(L)        MgCL2(cr)       MgCL2(L)       
 MgF2(L)         MgH2(b)         MgH2(L)         MgO(cr)         MgO(L)         
 Mg(OH)2(cr)     Mg(OH)2(L)      MgS(cr)         MgS(L)          MgSO4(II)      
 MgSO4(I)        MgSO4(L)        MgSiO3(II)      MgSiO3(III)     MgSiO3(L)      
 Mg2SiO4(L)      Mg3N2(cr)       NH4CL(III)      NH4F(cr)        NH4F(L)        
 S(a)            S(b)            S(L)            SCL2(L)         S2CL2(L)       
 Si(cr)          Si(L)           SiO2(a-qz)      SiO2(b-qz)      SiO2(b-crt)    
 SiO2(L)         SiS(cr)         SiS(L)          SiS2(cr)        SiS2(L)        
 Si2N2O(cr)      Si3N4(cr)      






 POINT ITN      T            H           HE          N           S 
                    O           F           MG          SI          CL
                    BR
   1    4     750.000      -6.937     -15.002     -16.069     -20.487
                 -50.839     -70.075     -54.860     -52.808     -40.469
                 -39.724

 SINGULAR MATRIX, ITERATION  1  VARIABLE 10(EQLBRM)
   2   16     350.000      -6.171     -13.780     -24.796     -24.001
                 -94.957    -134.518    -124.248    -131.415     -70.149
                 -41.029
   3    9     400.000      -6.219     -13.848     -22.801     -23.135
                 -84.585    -118.721    -107.767    -112.764     -58.747
                 -44.091
   4    2     450.000      -6.280     -13.935     -21.239     -22.472
                 -76.526    -106.460     -95.012     -98.326     -49.963
                 -42.940
 PHASE CHANGE, REPLACE  NH4CL(II)      WITH  NH4CL(III)     
   5    6     500.000      -6.348     -14.033     -19.523     -21.951
                 -70.087     -96.673     -84.862     -86.831     -43.546
                 -42.039
 REMOVE  NH4CL(III)     
   5    6     500.000      -6.348     -14.033     -19.973     -21.951
                 -70.087     -96.673     -84.862     -86.831     -47.279
                 -42.039
   6    2     550.000      -6.420     -14.136     -18.946     -21.534
                 -64.825     -88.683     -76.602     -77.472     -45.333
                 -41.318
   7    2     600.000      -6.494     -14.240     -18.090     -21.195
                 -60.446     -82.040     -69.757     -69.712     -43.725
                 -40.731
   8    2     650.000      -6.567     -14.345     -17.368     -20.915
                 -56.746     -76.432     -63.998     -63.180     -42.375
                 -40.246
 REMOVE  MgF2(cr)       
   8    0     650.000      -6.567     -14.345     -17.368     -20.915
                 -56.746     -76.448     -63.998     -63.180     -42.375
                 -40.246




               THERMODYNAMIC EQUILIBRIUM PROPERTIES AT ASSIGNED

                           TEMPERATURE AND PRESSURE

 CASE = saturn         

             REACTANT                       MOLES         ENERGY      TEMP
                                                         KJ/KG-MOL      K
 NAME        H2                           1.0000000         0.000      0.000
 NAME        He                           0.1350000         0.000      0.000
 NAME        N2                           0.0002270         0.000      0.000
 NAME        H2S                          0.0003760         0.000      0.000
 NAME        O2                           0.0049000         0.000      0.000
 NAME        HF                           0.0000007         0.000      0.000
 NAME        Mg                           0.0007960         0.000      0.000
 NAME        Si                           0.0006470         0.000      0.000
 NAME        HCL                          0.0000063         0.000      0.000
 NAME        HBr                          0.0000000         0.000      0.000

 O/F=    0.00000  %FUEL=  0.000000  R,EQ.RATIO=*********  PHI,EQ.RATIO= 0.000000

 THERMODYNAMIC PROPERTIES

 P, BAR            22.200   34.890   34.890   34.890   34.890   34.890   34.890   34.890
 T, K              750.00   350.00   400.00   450.00   500.00   550.00   600.00   650.00
 RHO, KG/CU M    8.6868-1 2.9256 0 2.5599 0 2.2755 0 2.0479 0 1.8617 0 1.7066 0 1.5753 0
 H, KJ/KG         4174.76  -482.75   96.075   676.24  1257.45  1838.82  2420.90  3003.98
 U, KJ/KG         1619.16 -1675.31 -1266.85  -857.06  -446.23  -35.227   376.48   789.19
 G, KJ/KG        -37137.3 -16119.1 -18392.3 -20738.3 -23148.8 -25617.6 -28139.3 -30709.6
 S, KJ/(KG)(K)    55.0828  44.6754  46.2210  47.5878  48.8125  49.9207  50.9336  51.8670

 M, (1/n)           2.440    2.440    2.440    2.440    2.440    2.440    2.440    2.440
 MW, MOL WT         2.439    2.439    2.439    2.439    2.439    2.439    2.439    2.439
 (dLV/dLP)t      -1.00005 -1.00000 -1.00000 -1.00000 -1.00000 -1.00000 -1.00000 -1.00000
 (dLV/dLT)p        1.0005   1.0000   1.0000   1.0001   1.0000   1.0000   1.0000   1.0000
 Cp, KJ/(KG)(K)   11.7471  11.5539  11.5935  11.6161  11.6217  11.6337  11.6505  11.6731
 GAMMAs            1.4090   1.4183   1.4162   1.4152   1.4148   1.4142   1.4134   1.4122
 SON VEL,M/SEC     1897.6   1300.5   1389.3   1473.0   1552.5   1628.0   1699.9   1768.6

 MOLE FRACTIONS

 *Br             1.258-17 1.253-27 7.671-27 2.426-25 5.997-23 1.578-21 2.420-20 2.450-19
 *CL             4.296-19 0.000  0 5.987-35 4.739-31 1.028-26 1.142-24 5.824-23 1.632-21
 *H              6.277-14 1.772-31 2.109-27 3.371-25 1.100-21 1.334-19 7.312-18 2.175-16
 HBr             6.1012-9 5.9047-7 6.1028-9 6.1018-9 6.1014-9 6.1014-9 6.1014-9 6.1014-9
 HCL             5.564 -6 7.391-12 1.316 -8 7.183 -7 5.564 -6 5.564 -6 5.564 -6 5.564 -6
 *HF             6.392 -7 1.732-13 1.051-11 9.636-11 3.279 -9 2.639 -8 1.498 -7 6.393 -7
 *H2             8.7307-1 8.7305-1 8.7305-1 8.7305-1 8.7305-1 8.7305-1 8.7305-1 8.7305-1
 H2F2            1.276-14 9.446-26 1.283-22 6.309-21 3.130-18 1.235-16 2.645-15 3.426-14
 H2O             6.7879-3 6.7885-3 6.7885-3 6.7885-3 6.7885-3 6.7885-3 6.7884-3 6.7881-3
 H2S             3.3103-4 3.3104-4 3.3105-4 3.3104-4 3.3104-4 3.3104-4 3.3104-4 3.3104-4
 *He             1.1885-1 1.1886-1 1.1886-1 1.1886-1 1.1886-1 1.1886-1 1.1886-1 1.1886-1
 MgCL2           4.770-18 0.000  0 1.229-33 1.927-28 6.289-24 2.579-22 5.637-21 7.597-20
 NH2             1.779-17 2.035-36 5.138-32 1.240-29 7.934-26 1.427-23 1.087-21 4.267-20
 NH3             3.6828-4 3.9415-4 3.9417-4 3.9442-4 3.9971-4 3.9968-4 3.9949-4 3.9861-4
 *N2             1.571 -5 8.836-14 5.256-12 5.003-11 1.949 -9 1.759 -8 1.130 -7 5.550 -7
 *OH             1.142-19 0.000  0 6.488-37 4.329-34 1.382-29 6.489-27 1.101-24 8.533-23
 SH              3.892-13 2.379-26 2.686-23 1.210-21 5.278-19 1.952-17 3.982-16 5.135-15
 S2              2.464-16 2.274-30 3.589-27 1.961-25 1.180-22 5.356-21 1.308-19 1.979-18
 SiF4            4.947-18 4.550-37 1.476-31 1.363-28 7.037-24 4.230-21 8.624-19 7.183-17
 SiHF3           5.824-20 0.000  0 3.387-37 8.862-34 2.377-28 3.749-25 1.697-22 2.807-20
 MgF2(cr)        0.0000 0 3.1960-7 3.1959-7 3.1957-7 3.1796-7 3.0661-7 2.4471-7 0.0000 0
 MgSiO3(I)       4.3844-4 4.3878-4 4.3878-4 4.3878-4 4.3877-4 4.3876-4 4.3870-4 4.3846-4
 Mg2SiO4(cr)     1.3118-4 1.3087-4 1.3087-4 1.3087-4 1.3087-4 1.3088-4 1.3094-4 1.3118-4
 NH4CL(II)       0.0000 0 5.5644-6 5.5512-6 5.2998-6 0.0000 0 0.0000 0 0.0000 0 0.0000 0

  * THERMODYNAMIC PROPERTIES FITTED TO 20000.K

    PRODUCTS WHICH WERE CONSIDERED BUT WHOSE MOLE FRACTIONS
    WERE LESS THAN 1.000000E-20 FOR ALL ASSIGNED CONDITIONS

 BrCL            BrF             BrF3            BrF5            BrO            
 OBrO            BrOO            BrO3            Br2             BrBrO          
 BrOBr           CLF             CLF3            CLF5            CLO            
 CLO2            CL2             CL2O            *F              FO             
 FO2,FOO         FO2,OFO         F2              F2O             F2O2           
 FS2F            HNO             HNO2            HNO3            HOCL           
 HOF             HO2             HSO3F           H2O2            H2SO4          
 H3F3            H4F4            H5F5            H6F6            H7F7           
 *Mg             MgBr            MgBr2           MgCL            MgF            
 MgF2            MgH             MgN             *MgO            MgOH           
 Mg(OH)2         MgS             Mg2             Mg2F4           *N             
 NF              NF2             NF3             *NH             NHF            
 NHF2            NH2F            NH2OH           *NO             NOCL           
 NOF             NOF3            NO2             NO2CL           NO2F           
 NO3             NO3F            N2F2            N2F4            N2H2           
 NH2NO2          N2H4            N2O             N2O3            N2O4           
 N2O5            N3              N3H             *O              *O2            
 O3              *S              SCL             SCL2            SF             
 SF2             SF3             SF4             SF5             SF6            
 SN              SO              SOF2            SO2             SO2CL2         
 SO2FCL          SO2F2           SO3             S2CL2           S2F2           
 S2O             S3              S4              S5              S6             
 S7              S8              *Si             SiBr            SiBr2          
 SiBr3           SiBr4           SiCL            SiCL2           SiCL3          
 SiCL4           SiF             SiFCL           SiF2            SiF3           
 SiH             SiHBr3          SiHCL           SiHCL3          SiHF           
 SiH2            SiH2Br2         SiH2CL2         SiH2F2          SiH3           
 SiH3Br          SiH3CL          SiH3F           SiH4            SiN            
 SiO             SiO2            SiS             SiS2            Si2            
 Si2F6           Si2N            Si3             Br2(cr)         Br2(L)         
 H2O(cr)         H2O(L)          H2SO4(L)        Mg(cr)          Mg(L)          
 MgBr2(cr)       MgBr2(L)        MgCL2(cr)       MgCL2(L)        MgF2(L)        
 MgH2(b)         MgH2(L)         MgO(cr)         MgO(L)          Mg(OH)2(cr)    
 Mg(OH)2(L)      MgS(cr)         MgS(L)          MgSO4(II)       MgSO4(I)       
 MgSO4(L)        MgSiO3(II)      MgSiO3(III)     MgSiO3(L)       Mg2SiO4(L)     
 Mg3N2(cr)       NH4CL(III)      NH4F(cr)        NH4F(L)         S(a)           
 S(b)            S(L)            SCL2(L)         S2CL2(L)        Si(cr)         
 Si(L)           SiO2(a-qz)      SiO2(b-qz)      SiO2(b-crt)     SiO2(L)        
 SiS(cr)         SiS(L)          SiS2(cr)        SiS2(L)         Si2N2O(cr)     
 Si3N4(cr)      






 POINT ITN      T            H           HE          N           S 
                    O           F           MG          SI          CL
                    BR
   1    3     700.000      -6.640     -14.448     -16.758     -20.682
                 -53.579     -72.908     -59.089     -57.610     -41.228
                 -39.840
   2    4     750.000      -6.711     -14.550     -16.248     -20.487
                 -50.839     -69.849     -54.860     -52.808     -40.243
                 -39.498

 SINGULAR MATRIX, ITERATION  1  VARIABLE 10(EQLBRM)
   3   16     350.000      -5.972     -13.381     -24.996     -24.001
                 -94.957    -134.518    -124.248    -131.415     -70.748
                 -40.840
   4    7     400.000      -6.019     -13.448     -23.001     -23.135
                 -84.585    -118.721    -107.767    -112.764     -59.347
                 -43.890
   5    2     450.000      -6.080     -13.536     -21.439     -22.472
                 -76.526    -106.460     -95.012     -98.326     -50.562
                 -42.740
 PHASE CHANGE, REPLACE  NH4CL(II)      WITH  NH4CL(III)     
   6    5     500.000      -6.149     -13.634     -19.909     -21.951
                 -70.087     -96.673     -84.862     -86.831     -43.959
                 -41.839
 REMOVE  NH4CL(III)     
   6    5     500.000      -6.148     -13.634     -20.173     -21.951
                 -70.087     -96.673     -84.862     -86.831     -47.080
                 -41.839
   7    2     550.000      -6.221     -13.736     -19.145     -21.534
                 -64.825     -88.683     -76.602     -77.472     -45.133
                 -41.118
   8    2     600.000      -6.294     -13.841     -18.289     -21.195
                 -60.446     -82.040     -69.757     -69.712     -43.525
                 -40.531




               THERMODYNAMIC EQUILIBRIUM PROPERTIES AT ASSIGNED

                           TEMPERATURE AND PRESSURE

 CASE = saturn         

             REACTANT                       MOLES         ENERGY      TEMP
                                                         KJ/KG-MOL      K
 NAME        H2                           1.0000000         0.000      0.000
 NAME        He                           0.1350000         0.000      0.000
 NAME        N2                           0.0002270         0.000      0.000
 NAME        H2S                          0.0003760         0.000      0.000
 NAME        O2                           0.0049000         0.000      0.000
 NAME        HF                           0.0000007         0.000      0.000
 NAME        Mg                           0.0007960         0.000      0.000
 NAME        Si                           0.0006470         0.000      0.000
 NAME        HCL                          0.0000063         0.000      0.000
 NAME        HBr                          0.0000000         0.000      0.000

 O/F=    0.00000  %FUEL=  0.000000  R,EQ.RATIO=*********  PHI,EQ.RATIO= 0.000000

 THERMODYNAMIC PROPERTIES

 P, BAR            34.890   34.890   52.020   52.020   52.020   52.020   52.020   52.020
 T, K              700.00   750.00   350.00   400.00   450.00   500.00   550.00   600.00
 RHO, KG/CU M    1.4628 0 1.3653 0 4.3620 0 3.8168 0 3.3927 0 3.0534 0 2.7758 0 2.5445 0
 H, KJ/KG         3588.34  4174.38  -482.75   96.075   676.24  1257.45  1838.82  2420.90
 U, KJ/KG         1203.18  1618.83 -1675.31 -1266.85  -857.06  -446.23  -35.227   376.48
 G, KJ/KG        -33324.9 -35981.9 -15642.8 -17848.0 -20125.8 -22468.3 -24869.0 -27322.7
 S, KJ/(KG)(K)    52.7331  53.5418  43.3144  44.8601  46.2268  47.4515  48.5597  49.5726

 M, (1/n)           2.440    2.440    2.440    2.440    2.440    2.440    2.440    2.440
 MW, MOL WT         2.439    2.439    2.439    2.439    2.439    2.439    2.439    2.439
 (dLV/dLP)t      -1.00001 -1.00003 -1.00000 -1.00000 -1.00000 -1.00000 -1.00000 -1.00000
 (dLV/dLT)p        1.0001   1.0002   1.0000   1.0000   1.0000   1.0000   1.0000   1.0000
 Cp, KJ/(KG)(K)   11.7028  11.7402  11.5539  11.5934  11.6133  11.6217  11.6337  11.6503
 GAMMAs            1.4108   1.4091   1.4183   1.4162   1.4153   1.4148   1.4142   1.4134
 SON VEL,M/SEC     1834.4   1897.7   1300.5   1389.3   1473.1   1552.5   1628.0   1699.9

 MOLE FRACTIONS

 *Br             1.788-18 1.004-17 1.016-27 6.285-27 1.987-25 4.912-23 1.292-21 1.982-20
 *CL             2.856-20 3.427-19 0.000  0 2.206-35 1.745-31 8.420-27 9.349-25 4.769-23
 *H              4.000-15 5.007-14 1.451-31 1.727-27 2.760-25 9.012-22 1.093-19 5.988-18
 HBr             6.1014-9 6.1013-9 5.8450-7 6.1055-9 6.1027-9 6.1014-9 6.1014-9 6.1014-9
 HCL             5.564 -6 5.564 -6 3.325-12 5.918 -9 3.231 -7 5.565 -6 5.564 -6 5.564 -6
 *HF             6.392 -7 6.392 -7 1.419-13 8.609-12 7.890-11 2.685 -9 2.161 -8 1.227 -7
 *H2             8.7305-1 8.7306-1 8.7305-1 8.7305-1 8.7305-1 8.7305-1 8.7305-1 8.7305-1
 H2F2            2.567-14 2.006-14 9.446-26 1.283-22 6.307-21 3.130-18 1.235-16 2.645-15
 H2O             6.7881-3 6.7881-3 6.7885-3 6.7885-3 6.7885-3 6.7885-3 6.7885-3 6.7884-3
 H2S             3.3104-4 3.3104-4 3.3104-4 3.3105-4 3.3105-4 3.3104-4 3.3104-4 3.3104-4
 *He             1.1886-1 1.1886-1 1.1886-1 1.1886-1 1.1886-1 1.1886-1 1.1886-1 1.1886-1
 MgCL2           7.006-19 4.771-18 0.000  0 2.488-34 3.899-29 6.290-24 2.579-22 5.637-21
 NH2             9.893-19 1.487-17 1.667-36 4.208-32 1.015-29 6.497-26 1.168-23 8.905-22
 NH3             3.9536-4 3.8575-4 3.9415-4 3.9416-4 3.9427-4 3.9972-4 3.9970-4 3.9962-4
 *N2             2.180 -6 6.981 -6 3.975-14 2.364-12 2.249-11 8.770-10 7.913 -9 5.086 -8
 *OH             3.569-21 9.112-20 0.000  0 5.313-37 3.543-34 1.132-29 5.314-27 9.018-25
 SH              4.615-14 3.104-13 1.948-26 2.199-23 9.905-22 4.322-19 1.598-17 3.261-16
 S2              2.051-17 1.568-16 1.525-30 2.407-27 1.315-25 7.915-23 3.593-21 8.774-20
 SiF4            2.186-17 7.776-18 3.052-37 9.901-32 9.139-29 4.720-24 2.837-21 5.784-19
 SiHF3           5.308-20 9.152-20 0.000  0 2.774-37 7.253-34 1.946-28 3.070-25 1.390-22
 MgF2(cr)        0.0000 0 0.0000 0 3.1960-7 3.1960-7 3.1957-7 3.1826-7 3.0896-7 2.5827-7
 MgSiO3(I)       4.3845-4 4.3845-4 4.3878-4 4.3878-4 4.3878-4 4.3877-4 4.3877-4 4.3871-4
 Mg2SiO4(cr)     1.3118-4 1.3118-4 1.3087-4 1.3087-4 1.3087-4 1.3087-4 1.3088-4 1.3093-4
 NH4CL(II)       0.0000 0 0.0000 0 5.5644-6 5.5585-6 5.4453-6 0.0000 0 0.0000 0 0.0000 0

  * THERMODYNAMIC PROPERTIES FITTED TO 20000.K

    PRODUCTS WHICH WERE CONSIDERED BUT WHOSE MOLE FRACTIONS
    WERE LESS THAN 1.000000E-20 FOR ALL ASSIGNED CONDITIONS

 BrCL            BrF             BrF3            BrF5            BrO            
 OBrO            BrOO            BrO3            Br2             BrBrO          
 BrOBr           CLF             CLF3            CLF5            CLO            
 CLO2            CL2             CL2O            *F              FO             
 FO2,FOO         FO2,OFO         F2              F2O             F2O2           
 FS2F            HNO             HNO2            HNO3            HOCL           
 HOF             HO2             HSO3F           H2O2            H2SO4          
 H3F3            H4F4            H5F5            H6F6            H7F7           
 *Mg             MgBr            MgBr2           MgCL            MgF            
 MgF2            MgH             MgN             *MgO            MgOH           
 Mg(OH)2         MgS             Mg2             Mg2F4           *N             
 NF              NF2             NF3             *NH             NHF            
 NHF2            NH2F            NH2OH           *NO             NOCL           
 NOF             NOF3            NO2             NO2CL           NO2F           
 NO3             NO3F            N2F2            N2F4            N2H2           
 NH2NO2          N2H4            N2O             N2O3            N2O4           
 N2O5            N3              N3H             *O              *O2            
 O3              *S              SCL             SCL2            SF             
 SF2             SF3             SF4             SF5             SF6            
 SN              SO              SOF2            SO2             SO2CL2         
 SO2FCL          SO2F2           SO3             S2CL2           S2F2           
 S2O             S3              S4              S5              S6             
 S7              S8              *Si             SiBr            SiBr2          
 SiBr3           SiBr4           SiCL            SiCL2           SiCL3          
 SiCL4           SiF             SiFCL           SiF2            SiF3           
 SiH             SiHBr3          SiHCL           SiHCL3          SiHF           
 SiH2            SiH2Br2         SiH2CL2         SiH2F2          SiH3           
 SiH3Br          SiH3CL          SiH3F           SiH4            SiN            
 SiO             SiO2            SiS             SiS2            Si2            
 Si2F6           Si2N            Si3             Br2(cr)         Br2(L)         
 H2O(cr)         H2O(L)          H2SO4(L)        Mg(cr)          Mg(L)          
 MgBr2(cr)       MgBr2(L)        MgCL2(cr)       MgCL2(L)        MgF2(L)        
 MgH2(b)         MgH2(L)         MgO(cr)         MgO(L)          Mg(OH)2(cr)    
 Mg(OH)2(L)      MgS(cr)         MgS(L)          MgSO4(II)       MgSO4(I)       
 MgSO4(L)        MgSiO3(II)      MgSiO3(III)     MgSiO3(L)       Mg2SiO4(L)     
 Mg3N2(cr)       NH4CL(III)      NH4F(cr)        NH4F(L)         S(a)           
 S(b)            S(L)            SCL2(L)         S2CL2(L)        Si(cr)         
 Si(L)           SiO2(a-qz)      SiO2(b-qz)      SiO2(b-crt)     SiO2(L)        
 SiS(cr)         SiS(L)          SiS2(cr)        SiS2(L)         Si2N2O(cr)     
 Si3N4(cr)      






 POINT ITN      T            H           HE          N           S 
                    O           F           MG          SI          CL
                    BR
   1    2     650.000      -6.367     -13.946     -17.566     -20.915
                 -56.746     -76.432     -63.998     -63.180     -42.175
                 -40.046
   2    1     700.000      -6.440     -14.049     -16.949     -20.682
                 -53.579     -71.636     -59.089     -57.610     -41.029
                 -39.641
 REMOVE  MgF2(cr)       
   2    2     700.000      -6.440     -14.049     -16.951     -20.682
                 -53.579     -72.706     -59.089     -57.610     -41.029
                 -39.641
   3    3     750.000      -6.511     -14.150     -16.429     -20.487
                 -50.839     -69.649     -54.860     -52.808     -40.044
                 -39.298

 SINGULAR MATRIX, ITERATION  1  VARIABLE 10(EQLBRM)
   4   16     350.000      -5.793     -13.023     -25.175     -24.001
                 -94.957    -134.518    -124.248    -131.415     -71.285
                 -40.670
 ADD  H2O(L)         
   4    3     350.000      -5.792     -13.022     -25.176     -24.001
                 -95.159    -134.620    -124.046    -131.010     -71.287
                 -44.367
   5    4     400.000      -5.853     -13.116     -23.167     -23.135
                 -83.006    -117.931    -109.346    -115.922     -59.845
                 -43.725
 REMOVE  H2O(L)         
   5    5     400.000      -5.840     -13.090     -23.180     -23.135
                 -84.585    -118.721    -107.767    -112.764     -59.884
                 -43.712
   6    2     450.000      -5.901     -13.178     -21.619     -22.472
                 -76.526    -106.460     -95.012     -98.326     -51.098
                 -42.561
 PHASE CHANGE, REPLACE  NH4CL(II)      WITH  NH4CL(III)     
   7    5     500.000      -5.970     -13.276     -20.204     -21.951
                 -70.087     -96.673     -84.862     -86.831     -44.380
                 -41.660
 REMOVE  NH4CL(III)     
   7    4     500.000      -5.970     -13.276     -20.352     -21.951
                 -70.087     -96.673     -84.862     -86.831     -46.900
                 -41.660
   8    2     550.000      -6.042     -13.378     -19.324     -21.534
                 -64.825     -88.683     -76.602     -77.472     -44.954
                 -40.939




               THERMODYNAMIC EQUILIBRIUM PROPERTIES AT ASSIGNED

                           TEMPERATURE AND PRESSURE

 CASE = saturn         

             REACTANT                       MOLES         ENERGY      TEMP
                                                         KJ/KG-MOL      K
 NAME        H2                           1.0000000         0.000      0.000
 NAME        He                           0.1350000         0.000      0.000
 NAME        N2                           0.0002270         0.000      0.000
 NAME        H2S                          0.0003760         0.000      0.000
 NAME        O2                           0.0049000         0.000      0.000
 NAME        HF                           0.0000007         0.000      0.000
 NAME        Mg                           0.0007960         0.000      0.000
 NAME        Si                           0.0006470         0.000      0.000
 NAME        HCL                          0.0000063         0.000      0.000
 NAME        HBr                          0.0000000         0.000      0.000

 O/F=    0.00000  %FUEL=  0.000000  R,EQ.RATIO=*********  PHI,EQ.RATIO= 0.000000

 THERMODYNAMIC PROPERTIES

 P, BAR            52.020   52.020   52.020   74.410   74.410   74.410   74.410   74.410
 T, K              650.00   700.00   750.00   350.00   400.00   450.00   500.00   550.00
 RHO, KG/CU M    2.3488 0 2.1810 0 2.0356 0 6.2473 0 5.4596 0 4.8529 0 4.3676 0 3.9705 0
 H, KJ/KG         3003.96  3588.29  4174.22  -504.10   96.075   676.24  1257.45  1838.82
 U, KJ/KG          789.17  1203.13  1618.68 -1695.18 -1266.85  -857.06  -446.23  -35.227
 G, KJ/KG        -29824.9 -32372.2 -34961.2 -15216.0 -17360.1 -19576.9 -21858.4 -24198.2
 S, KJ/(KG)(K)    50.5060  51.3721  52.1806  42.0341  43.6404  45.0070  46.2318  47.3400

 M, (1/n)           2.440    2.440    2.440    2.443    2.440    2.440    2.440    2.440
 MW, MOL WT         2.439    2.439    2.439    2.439    2.439    2.439    2.439    2.439
 (dLV/dLP)t      -1.00000 -1.00000 -1.00001 -1.00558 -1.00000 -1.00000 -1.00000 -1.00000
 (dLV/dLT)p        1.0000   1.0000   1.0001   1.0803   1.0000   1.0000   1.0000   1.0000
 Cp, KJ/(KG)(K)   11.6733  11.7015  11.7368  15.5049  11.5934  11.6121  11.6217  11.6336
 GAMMAs            1.4122   1.4109   1.4092   1.3343   1.4162   1.4153   1.4148   1.4142
 SON VEL,M/SEC     1768.6   1834.4   1897.7   1260.7   1389.3   1473.1   1552.5   1628.0

 MOLE FRACTIONS

 *Br             2.006-19 1.464-18 8.221-18 2.085-29 5.252-27 1.661-25 4.107-23 1.081-21
 *CL             1.337-21 2.339-20 2.807-19 0.000  0 9.013-36 7.130-32 7.043-27 7.817-25
 *H              1.781-16 3.276-15 4.100-14 1.213-31 1.444-27 2.307-25 7.536-22 9.136-20
 HBr             6.1014-9 6.1014-9 6.1014-9 1.4357-8 6.1014-9 6.1014-9 6.1014-9 6.1014-9
 HCL             5.564 -6 5.564 -6 5.564 -6 1.621-12 2.893 -9 1.579 -7 5.567 -6 5.564 -6
 *HF             5.321 -7 6.410 -7 6.392 -7 1.071-13 7.198-12 6.596-11 2.245 -9 1.807 -8
 *H2             8.7305-1 8.7305-1 8.7305-1 8.7305-1 8.7305-1 8.7305-1 8.7305-1 8.7305-1
 H2F2            3.539-14 3.848-14 2.991-14 7.714-26 1.283-22 6.306-21 3.130-18 1.235-16
 H2O             6.7882-3 6.7881-3 6.7881-3 5.5438-3 6.7885-3 6.7885-3 6.7885-3 6.7885-3
 H2S             3.3104-4 3.3104-4 3.3104-4 3.3105-4 3.3105-4 3.3105-4 3.3104-4 3.3104-4
 *He             1.1886-1 1.1886-1 1.1886-1 1.1886-1 1.1886-1 1.1886-1 1.1886-1 1.1886-1
 MgCL2           7.597-20 7.006-19 4.771-18 0.000  0 5.942-35 9.311-30 6.295-24 2.579-22
 NH2             3.500-20 8.150-19 1.241-17 1.393-36 3.518-32 8.480-30 5.433-26 9.770-24
 NH3             3.9922-4 3.9773-4 3.9319-4 3.9415-4 3.9416-4 3.9421-4 3.9972-4 3.9971-4
 *N2             2.504 -7 9.926 -7 3.262 -6 1.938-14 1.156-12 1.099-11 4.286-10 3.868 -9
 *OH             6.988-23 2.923-21 7.462-20 0.000  0 4.442-37 2.962-34 9.464-30 4.443-27
 SH              4.206-15 3.780-14 2.542-13 1.628-26 1.839-23 8.280-22 3.614-19 1.336-17
 S2              1.327-18 1.376-17 1.052-16 1.065-30 1.683-27 9.191-26 5.534-23 2.512-21
 SiF4            5.141-17 3.296-17 1.159-17 2.131-37 6.922-32 6.388-29 3.300-24 1.983-21
 SiHF3           2.413-20 7.980-20 1.365-19 0.000  0 2.319-37 6.062-34 1.627-28 2.567-25
 H2O(L)          0.0000 0 0.0000 0 0.0000 0 1.2447-3 0.0000 0 0.0000 0 0.0000 0 0.0000 0
 MgF2(cr)        5.3539-8 0.0000 0 0.0000 0 3.1960-7 3.1960-7 3.1958-7 3.1848-7 3.1071-7
 MgSiO3(I)       4.3851-4 4.3846-4 4.3845-4 4.3878-4 4.3878-4 4.3878-4 4.3877-4 4.3877-4
 Mg2SiO4(cr)     1.3113-4 1.3118-4 1.3118-4 1.3087-4 1.3087-4 1.3087-4 1.3087-4 1.3087-4
 NH4CL(II)       0.0000 0 0.0000 0 0.0000 0 5.5644-6 5.5615-6 5.5062-6 0.0000 0 0.0000 0

  * THERMODYNAMIC PROPERTIES FITTED TO 20000.K

    PRODUCTS WHICH WERE CONSIDERED BUT WHOSE MOLE FRACTIONS
    WERE LESS THAN 1.000000E-20 FOR ALL ASSIGNED CONDITIONS

 BrCL            BrF             BrF3            BrF5            BrO            
 OBrO            BrOO            BrO3            Br2             BrBrO          
 BrOBr           CLF             CLF3            CLF5            CLO            
 CLO2            CL2             CL2O            *F              FO             
 FO2,FOO         FO2,OFO         F2              F2O             F2O2           
 FS2F            HNO             HNO2            HNO3            HOCL           
 HOF             HO2             HSO3F           H2O2            H2SO4          
 H3F3            H4F4            H5F5            H6F6            H7F7           
 *Mg             MgBr            MgBr2           MgCL            MgF            
 MgF2            MgH             MgN             *MgO            MgOH           
 Mg(OH)2         MgS             Mg2             Mg2F4           *N             
 NF              NF2             NF3             *NH             NHF            
 NHF2            NH2F            NH2OH           *NO             NOCL           
 NOF             NOF3            NO2             NO2CL           NO2F           
 NO3             NO3F            N2F2            N2F4            N2H2           
 NH2NO2          N2H4            N2O             N2O3            N2O4           
 N2O5            N3              N3H             *O              *O2            
 O3              *S              SCL             SCL2            SF             
 SF2             SF3             SF4             SF5             SF6            
 SN              SO              SOF2            SO2             SO2CL2         
 SO2FCL          SO2F2           SO3             S2CL2           S2F2           
 S2O             S3              S4              S5              S6             
 S7              S8              *Si             SiBr            SiBr2          
 SiBr3           SiBr4           SiCL            SiCL2           SiCL3          
 SiCL4           SiF             SiFCL           SiF2            SiF3           
 SiH             SiHBr3          SiHCL           SiHCL3          SiHF           
 SiH2            SiH2Br2         SiH2CL2         SiH2F2          SiH3           
 SiH3Br          SiH3CL          SiH3F           SiH4            SiN            
 SiO             SiO2            SiS             SiS2            Si2            
 Si2F6           Si2N            Si3             Br2(cr)         Br2(L)         
 H2O(cr)         H2SO4(L)        Mg(cr)          Mg(L)           MgBr2(cr)      
 MgBr2(L)        MgCL2(cr)       MgCL2(L)        MgF2(L)         MgH2(b)        
 MgH2(L)         MgO(cr)         MgO(L)          Mg(OH)2(cr)     Mg(OH)2(L)     
 MgS(cr)         MgS(L)          MgSO4(II)       MgSO4(I)        MgSO4(L)       
 MgSiO3(II)      MgSiO3(III)     MgSiO3(L)       Mg2SiO4(L)      Mg3N2(cr)      
 NH4CL(III)      NH4F(cr)        NH4F(L)         S(a)            S(b)           
 S(L)            SCL2(L)         S2CL2(L)        Si(cr)          Si(L)          
 SiO2(a-qz)      SiO2(b-qz)      SiO2(b-crt)     SiO2(L)         SiS(cr)        
 SiS(L)          SiS2(cr)        SiS2(L)         Si2N2O(cr)      Si3N4(cr)      






 POINT ITN      T            H           HE          N           S 
                    O           F           MG          SI          CL
                    BR
   1    2     600.000      -6.115     -13.483     -18.468     -21.195
                 -60.446     -82.040     -69.757     -69.712     -43.346
                 -40.352
   2    2     650.000      -6.188     -13.588     -17.745     -20.915
                 -56.746     -76.432     -63.998     -63.180     -41.996
                 -39.867
   3    1     700.000      -6.261     -13.691     -17.127     -20.682
                 -53.579     -71.636     -59.089     -57.610     -40.850
                 -39.462
 REMOVE  MgF2(cr)       
   3    2     700.000      -6.261     -13.691     -17.128     -20.682
                 -53.579     -72.529     -59.089     -57.610     -40.850
                 -39.462
   4    2     750.000      -6.332     -13.792     -16.600     -20.487
                 -50.839     -69.470     -54.860     -52.808     -39.865
                 -39.119

 SINGULAR MATRIX, ITERATION  1  VARIABLE 10(EQLBRM)
   5   16     350.000      -5.631     -12.699     -25.337     -24.001
                 -94.957    -134.518    -124.248    -131.415     -71.771
                 -40.516
 ADD  H2O(L)         
   5    3     350.000      -5.629     -12.696     -25.338     -24.001
                 -95.485    -134.782    -123.720    -130.359     -71.776
                 -44.210
   6    4     400.000      -5.686     -12.783     -23.333     -23.135
                 -83.339    -118.098    -109.013    -115.256     -60.344
                 -43.558
 REMOVE  H2O(L)         
   6    5     400.000      -5.678     -12.766     -23.342     -23.135
                 -84.585    -118.721    -107.767    -112.764     -60.369
                 -43.550
   7    2     450.000      -5.739     -12.854     -21.781     -22.472
                 -76.526    -106.460     -95.012     -98.326     -51.584
                 -42.399
 PHASE CHANGE, REPLACE  NH4CL(II)      WITH  NH4CL(III)     
   8    5     500.000      -5.808     -12.952     -20.434     -21.951
                 -70.087     -96.673     -84.862     -86.831     -44.798
                 -41.498
 REMOVE  NH4CL(III)     
   8    4     500.000      -5.808     -12.952     -20.514     -21.951
                 -70.087     -96.673     -84.862     -86.831     -46.739
                 -41.498




               THERMODYNAMIC EQUILIBRIUM PROPERTIES AT ASSIGNED

                           TEMPERATURE AND PRESSURE

 CASE = saturn         

             REACTANT                       MOLES         ENERGY      TEMP
                                                         KJ/KG-MOL      K
 NAME        H2                           1.0000000         0.000      0.000
 NAME        He                           0.1350000         0.000      0.000
 NAME        N2                           0.0002270         0.000      0.000
 NAME        H2S                          0.0003760         0.000      0.000
 NAME        O2                           0.0049000         0.000      0.000
 NAME        HF                           0.0000007         0.000      0.000
 NAME        Mg                           0.0007960         0.000      0.000
 NAME        Si                           0.0006470         0.000      0.000
 NAME        HCL                          0.0000063         0.000      0.000
 NAME        HBr                          0.0000000         0.000      0.000

 O/F=    0.00000  %FUEL=  0.000000  R,EQ.RATIO=*********  PHI,EQ.RATIO= 0.000000

 THERMODYNAMIC PROPERTIES

 P, BAR            74.410   74.410   74.410   74.410   102.88   102.88   102.88   102.88
 T, K              600.00   650.00   700.00   750.00   350.00   400.00   450.00   500.00
 RHO, KG/CU M    3.6397 0 3.3597 0 3.1197 0 2.9117 0 8.6509 0 7.5484 0 6.7097 0 6.0387 0
 H, KJ/KG         2420.90  3003.95  3588.27  4174.15  -530.53   96.075   676.24  1257.45
 U, KJ/KG          376.48   789.16  1203.11  1618.62 -1719.77 -1266.85  -857.06  -446.23
 G, KJ/KG        -26590.9 -29032.1 -31518.4 -34046.4 -14830.5 -16918.5 -19080.2 -21306.5
 S, KJ/(KG)(K)    48.3529  49.2863  50.1523  50.9607  40.8569  42.5365  43.9031  45.1279

 M, (1/n)           2.440    2.440    2.440    2.440    2.447    2.440    2.440    2.440
 MW, MOL WT         2.439    2.439    2.439    2.439    2.439    2.439    2.439    2.439
 (dLV/dLP)t      -1.00000 -1.00000 -1.00000 -1.00001 -1.00403 -1.00000 -1.00000 -1.00000
 (dLV/dLT)p        1.0000   1.0000   1.0000   1.0001   1.0580   1.0000   1.0000   1.0000
 Cp, KJ/(KG)(K)   11.6503  11.6730  11.7009  11.7352  14.4350  11.5934  11.6116  11.6217
 GAMMAs            1.4134   1.4122   1.4109   1.4092   1.3503   1.4162   1.4153   1.4148
 SON VEL,M/SEC     1699.9   1768.6   1834.4   1897.7   1267.2   1389.3   1473.1   1552.5

 MOLE FRACTIONS

 *Br             1.657-20 1.677-19 1.224-18 6.874-18 1.761-29 4.466-27 1.412-25 3.493-23
 *CL             3.988-23 1.118-21 1.956-20 2.347-19 0.000  0 4.010-36 3.172-32 5.987-27
 *H              5.007-18 1.489-16 2.739-15 3.428-14 1.031-31 1.228-27 1.962-25 6.409-22
 HBr             6.1014-9 6.1014-9 6.1014-9 6.1014-9 1.4273-8 6.1014-9 6.1014-9 6.1014-9
 HCL             5.564 -6 5.564 -6 5.564 -6 5.564 -6 8.453-13 1.513 -9 8.262 -8 5.564 -6
 *HF             1.026 -7 4.449 -7 6.397 -7 6.392 -7 7.736-14 6.122-12 5.610-11 1.909 -9
 *H2             8.7305-1 8.7305-1 8.7305-1 8.7305-1 8.7305-1 8.7305-1 8.7305-1 8.7305-1
 H2F2            2.645-15 3.539-14 5.484-14 4.279-14 5.571-26 1.283-22 6.306-21 3.130-18
 H2O             6.7884-3 6.7882-3 6.7881-3 6.7881-3 4.0035-3 6.7885-3 6.7885-3 6.7885-3
 H2S             3.3104-4 3.3104-4 3.3104-4 3.3104-4 3.3105-4 3.3105-4 3.3105-4 3.3104-4
 *He             1.1886-1 1.1886-1 1.1886-1 1.1886-1 1.1886-1 1.1886-1 1.1886-1 1.1886-1
 MgCL2           5.637-21 7.597-20 7.006-19 4.771-18 0.000  0 1.626-35 2.548-30 6.290-24
 NH2             7.447-22 2.928-20 6.832-19 1.046-17 1.184-36 2.992-32 7.210-30 4.620-26
 NH3             3.9967-4 3.9947-4 3.9874-4 3.9647-4 3.9415-4 3.9416-4 3.9419-4 3.9972-4
 *N2             2.486 -8 1.225 -7 4.876 -7 1.621 -6 1.011-14 6.045-13 5.746-12 2.242-10
 *OH             7.540-25 5.843-23 2.444-21 6.239-20 0.000  0 3.778-37 2.518-34 8.049-30
 SH              2.726-16 3.516-15 3.160-14 2.126-13 1.383-26 1.564-23 7.042-22 3.074-19
 S2              6.134-20 9.279-19 9.617-18 7.353-17 7.689-31 1.217-27 6.647-26 4.002-23
 SiF4            4.044-19 3.594-17 4.678-17 1.658-17 1.539-37 5.006-32 4.619-29 2.387-24
 SiHF3           1.162-22 2.018-20 1.135-19 1.952-19 0.000  0 1.972-37 5.155-34 1.384-28
 H2O(L)          0.0000 0 0.0000 0 0.0000 0 0.0000 0 2.7850-3 0.0000 0 0.0000 0 0.0000 0
 MgF2(cr)        2.6832-7 9.7139-8 0.0000 0 0.0000 0 3.1960-7 3.1960-7 3.1958-7 3.1864-7
 MgSiO3(I)       4.3872-4 4.3855-4 4.3846-4 4.3845-4 4.3878-4 4.3878-4 4.3878-4 4.3877-4
 Mg2SiO4(cr)     1.3092-4 1.3109-4 1.3118-4 1.3118-4 1.3087-4 1.3087-4 1.3087-4 1.3087-4
 NH4CL(II)       0.0000 0 0.0000 0 0.0000 0 0.0000 0 5.5644-6 5.5629-6 5.5339-6 0.0000 0

  * THERMODYNAMIC PROPERTIES FITTED TO 20000.K

    PRODUCTS WHICH WERE CONSIDERED BUT WHOSE MOLE FRACTIONS
    WERE LESS THAN 1.000000E-20 FOR ALL ASSIGNED CONDITIONS

 BrCL            BrF             BrF3            BrF5            BrO            
 OBrO            BrOO            BrO3            Br2             BrBrO          
 BrOBr           CLF             CLF3            CLF5            CLO            
 CLO2            CL2             CL2O            *F              FO             
 FO2,FOO         FO2,OFO         F2              F2O             F2O2           
 FS2F            HNO             HNO2            HNO3            HOCL           
 HOF             HO2             HSO3F           H2O2            H2SO4          
 H3F3            H4F4            H5F5            H6F6            H7F7           
 *Mg             MgBr            MgBr2           MgCL            MgF            
 MgF2            MgH             MgN             *MgO            MgOH           
 Mg(OH)2         MgS             Mg2             Mg2F4           *N             
 NF              NF2             NF3             *NH             NHF            
 NHF2            NH2F            NH2OH           *NO             NOCL           
 NOF             NOF3            NO2             NO2CL           NO2F           
 NO3             NO3F            N2F2            N2F4            N2H2           
 NH2NO2          N2H4            N2O             N2O3            N2O4           
 N2O5            N3              N3H             *O              *O2            
 O3              *S              SCL             SCL2            SF             
 SF2             SF3             SF4             SF5             SF6            
 SN              SO              SOF2            SO2             SO2CL2         
 SO2FCL          SO2F2           SO3             S2CL2           S2F2           
 S2O             S3              S4              S5              S6             
 S7              S8              *Si             SiBr            SiBr2          
 SiBr3           SiBr4           SiCL            SiCL2           SiCL3          
 SiCL4           SiF             SiFCL           SiF2            SiF3           
 SiH             SiHBr3          SiHCL           SiHCL3          SiHF           
 SiH2            SiH2Br2         SiH2CL2         SiH2F2          SiH3           
 SiH3Br          SiH3CL          SiH3F           SiH4            SiN            
 SiO             SiO2            SiS             SiS2            Si2            
 Si2F6           Si2N            Si3             Br2(cr)         Br2(L)         
 H2O(cr)         H2SO4(L)        Mg(cr)          Mg(L)           MgBr2(cr)      
 MgBr2(L)        MgCL2(cr)       MgCL2(L)        MgF2(L)         MgH2(b)        
 MgH2(L)         MgO(cr)         MgO(L)          Mg(OH)2(cr)     Mg(OH)2(L)     
 MgS(cr)         MgS(L)          MgSO4(II)       MgSO4(I)        MgSO4(L)       
 MgSiO3(II)      MgSiO3(III)     MgSiO3(L)       Mg2SiO4(L)      Mg3N2(cr)      
 NH4CL(III)      NH4F(cr)        NH4F(L)         S(a)            S(b)           
 S(L)            SCL2(L)         S2CL2(L)        Si(cr)          Si(L)          
 SiO2(a-qz)      SiO2(b-qz)      SiO2(b-crt)     SiO2(L)         SiS(cr)        
 SiS(L)          SiS2(cr)        SiS2(L)         Si2N2O(cr)      Si3N4(cr)      






 POINT ITN      T            H           HE          N           S 
                    O           F           MG          SI          CL
                    BR
   1    2     550.000      -5.880     -13.054     -19.486     -21.534
                 -64.825     -88.683     -76.602     -77.472     -44.792
                 -40.777
   2    2     600.000      -5.953     -13.159     -18.630     -21.195
                 -60.446     -82.040     -69.757     -69.712     -43.184
                 -40.190
   3    2     650.000      -6.026     -13.264     -17.906     -20.915
                 -56.746     -76.432     -63.998     -63.180     -41.834
                 -39.705
   4    1     700.000      -6.099     -13.367     -17.288     -20.682
                 -53.579     -71.636     -59.089     -57.610     -40.688
                 -39.300
 REMOVE  MgF2(cr)       
   4    2     700.000      -6.099     -13.367     -17.289     -20.682
                 -53.579     -72.367     -59.089     -57.610     -40.688
                 -39.300
   5    2     750.000      -6.170     -13.468     -16.758     -20.487
                 -50.839     -69.308     -54.860     -52.808     -39.703
                 -38.957

 SINGULAR MATRIX, ITERATION  1  VARIABLE 10(EQLBRM)
   6   16     350.000      -5.483     -12.403     -25.485     -24.001
                 -94.957    -134.518    -124.248    -131.415     -72.216
                 -40.376
 ADD  H2O(L)         
   6    3     350.000      -5.481     -12.399     -25.487     -24.001
                 -95.782    -134.931    -123.423    -129.765     -72.221
                 -44.067
   7    4     400.000      -5.535     -12.481     -23.484     -23.135
                 -83.641    -118.249    -108.711    -114.652     -60.798
                 -43.407
 REMOVE  H2O(L)         
   7    5     400.000      -5.530     -12.470     -23.490     -23.135
                 -84.585    -118.721    -107.767    -112.764     -60.814
                 -43.402
   8    2     450.000      -5.591     -12.558     -21.929     -22.472
                 -76.526    -106.460     -95.012     -98.326     -52.028
                 -42.251




               THERMODYNAMIC EQUILIBRIUM PROPERTIES AT ASSIGNED

                           TEMPERATURE AND PRESSURE

 CASE = saturn         

             REACTANT                       MOLES         ENERGY      TEMP
                                                         KJ/KG-MOL      K
 NAME        H2                           1.0000000         0.000      0.000
 NAME        He                           0.1350000         0.000      0.000
 NAME        N2                           0.0002270         0.000      0.000
 NAME        H2S                          0.0003760         0.000      0.000
 NAME        O2                           0.0049000         0.000      0.000
 NAME        HF                           0.0000007         0.000      0.000
 NAME        Mg                           0.0007960         0.000      0.000
 NAME        Si                           0.0006470         0.000      0.000
 NAME        HCL                          0.0000063         0.000      0.000
 NAME        HBr                          0.0000000         0.000      0.000

 O/F=    0.00000  %FUEL=  0.000000  R,EQ.RATIO=*********  PHI,EQ.RATIO= 0.000000

 THERMODYNAMIC PROPERTIES

 P, BAR            102.88   102.88   102.88   102.88   102.88   138.33   138.33   138.33
 T, K              550.00   600.00   650.00   700.00   750.00   350.00   400.00   450.00
 RHO, KG/CU M    5.4897 0 5.0322 0 4.6451 0 4.3133 0 4.0258 0 1.1644 1 1.0149 1 9.0217 0
 H, KJ/KG         1838.82  2420.89  3003.95  3588.26  4174.12  -548.18   96.075   676.24
 U, KJ/KG         -35.228   376.48   789.16  1203.11  1618.59 -1736.20 -1266.85  -857.06
 G, KJ/KG        -23591.0 -25928.5 -28314.6 -30745.6 -33218.5 -14478.5 -16515.0 -18626.2
 S, KJ/(KG)(K)    46.2361  47.2490  48.1824  49.0484  49.8568  39.8010  41.5277  42.8943

 M, (1/n)           2.440    2.440    2.440    2.440    2.440    2.450    2.440    2.440
 MW, MOL WT         2.439    2.439    2.439    2.439    2.439    2.439    2.439    2.439
 (dLV/dLP)t      -1.00000 -1.00000 -1.00000 -1.00000 -1.00000 -1.00300 -1.00000 -1.00000
 (dLV/dLT)p        1.0000   1.0000   1.0000   1.0000   1.0000   1.0431   1.0000   1.0000
 Cp, KJ/(KG)(K)   11.6336  11.6502  11.6729  11.7007  11.7345  13.7220  11.5934  11.6113
 GAMMAs            1.4142   1.4134   1.4122   1.4109   1.4092   1.3627   1.4162   1.4153
 SON VEL,M/SEC     1628.0   1699.9   1768.6   1834.4   1897.7   1272.3   1389.3   1473.1

 MOLE FRACTIONS

 *Br             9.190-22 1.410-20 1.427-19 1.041-18 5.846-18 1.510-29 3.852-27 1.218-25
 *CL             6.648-25 3.391-23 9.506-22 1.663-20 1.996-19 0.000  0 1.913-36 1.513-32
 *H              7.770-20 4.258-18 1.266-16 2.329-15 2.916-14 8.883-32 1.059-27 1.692-25
 HBr             6.1014-9 6.1014-9 6.1014-9 6.1014-9 6.1014-9 1.4198-8 6.1014-9 6.1014-9
 HCL             5.564 -6 5.564 -6 5.564 -6 5.564 -6 5.564 -6 4.666-13 8.370-10 4.570 -8
 *HF             1.537 -8 8.722 -8 3.784 -7 6.393 -7 6.392 -7 5.747-14 5.280-12 4.838-11
 *H2             8.7305-1 8.7305-1 8.7305-1 8.7305-1 8.7305-1 8.7305-1 8.7305-1 8.7305-1
 H2F2            1.235-16 2.645-15 3.539-14 7.572-14 5.916-14 4.139-26 1.283-22 6.306-21
 H2O             6.7885-3 6.7884-3 6.7883-3 6.7881-3 6.7881-3 2.9745-3 6.7885-3 6.7885-3
 H2S             3.3104-4 3.3104-4 3.3104-4 3.3104-4 3.3104-4 3.3105-4 3.3105-4 3.3105-4
 *He             1.1886-1 1.1886-1 1.1886-1 1.1886-1 1.1886-1 1.1886-1 1.1886-1 1.1886-1
 MgCL2           2.579-22 5.637-21 7.597-20 7.006-19 4.771-18 0.000  0 4.975-36 7.795-31
 NH2             8.309-24 6.334-22 2.491-20 5.817-19 8.932-18 1.020-36 2.580-32 6.218-30
 NH3             3.9971-4 3.9969-4 3.9959-4 3.9921-4 3.9801-4 3.9415-4 3.9416-4 3.9417-4
 *N2             2.023 -9 1.301 -8 6.414 -8 2.557 -7 8.547 -7 5.578-15 3.344-13 3.178-12
 *OH             3.779-27 6.412-25 4.969-23 2.079-21 5.306-20 0.000  0 3.258-37 2.172-34
 SH              1.136-17 2.319-16 2.991-15 2.688-14 1.808-13 1.192-26 1.349-23 6.073-22
 S2              1.817-21 4.437-20 6.711-19 6.955-18 5.318-17 5.713-31 9.052-28 4.943-26
 SiF4            1.435-21 2.925-19 2.599-17 6.452-17 2.293-17 1.143-37 3.723-32 3.435-29
 SiHF3           2.183-25 9.882-23 1.716-20 1.566-19 2.699-19 0.000  0 1.701-37 4.445-34
 H2O(L)          0.0000 0 0.0000 0 0.0000 0 0.0000 0 0.0000 0 3.8141-3 0.0000 0 0.0000 0
 MgF2(cr)        3.1204-7 2.7599-7 1.3041-7 0.0000 0 0.0000 0 3.1960-7 3.1960-7 3.1958-7
 MgSiO3(I)       4.3877-4 4.3873-4 4.3859-4 4.3846-4 4.3846-4 4.3878-4 4.3878-4 4.3878-4
 Mg2SiO4(cr)     1.3087-4 1.3091-4 1.3105-4 1.3118-4 1.3118-4 1.3087-4 1.3087-4 1.3087-4
 NH4CL(II)       0.0000 0 0.0000 0 0.0000 0 0.0000 0 0.0000 0 5.5644-6 5.5635-6 5.5475-6

  * THERMODYNAMIC PROPERTIES FITTED TO 20000.K

    PRODUCTS WHICH WERE CONSIDERED BUT WHOSE MOLE FRACTIONS
    WERE LESS THAN 1.000000E-20 FOR ALL ASSIGNED CONDITIONS

 BrCL            BrF             BrF3            BrF5            BrO            
 OBrO            BrOO            BrO3            Br2             BrBrO          
 BrOBr           CLF             CLF3            CLF5            CLO            
 CLO2            CL2             CL2O            *F              FO             
 FO2,FOO         FO2,OFO         F2              F2O             F2O2           
 FS2F            HNO             HNO2            HNO3            HOCL           
 HOF             HO2             HSO3F           H2O2            H2SO4          
 H3F3            H4F4            H5F5            H6F6            H7F7           
 *Mg             MgBr            MgBr2           MgCL            MgF            
 MgF2            MgH             MgN             *MgO            MgOH           
 Mg(OH)2         MgS             Mg2             Mg2F4           *N             
 NF              NF2             NF3             *NH             NHF            
 NHF2            NH2F            NH2OH           *NO             NOCL           
 NOF             NOF3            NO2             NO2CL           NO2F           
 NO3             NO3F            N2F2            N2F4            N2H2           
 NH2NO2          N2H4            N2O             N2O3            N2O4           
 N2O5            N3              N3H             *O              *O2            
 O3              *S              SCL             SCL2            SF             
 SF2             SF3             SF4             SF5             SF6            
 SN              SO              SOF2            SO2             SO2CL2         
 SO2FCL          SO2F2           SO3             S2CL2           S2F2           
 S2O             S3              S4              S5              S6             
 S7              S8              *Si             SiBr            SiBr2          
 SiBr3           SiBr4           SiCL            SiCL2           SiCL3          
 SiCL4           SiF             SiFCL           SiF2            SiF3           
 SiH             SiHBr3          SiHCL           SiHCL3          SiHF           
 SiH2            SiH2Br2         SiH2CL2         SiH2F2          SiH3           
 SiH3Br          SiH3CL          SiH3F           SiH4            SiN            
 SiO             SiO2            SiS             SiS2            Si2            
 Si2F6           Si2N            Si3             Br2(cr)         Br2(L)         
 H2O(cr)         H2SO4(L)        Mg(cr)          Mg(L)           MgBr2(cr)      
 MgBr2(L)        MgCL2(cr)       MgCL2(L)        MgF2(L)         MgH2(b)        
 MgH2(L)         MgO(cr)         MgO(L)          Mg(OH)2(cr)     Mg(OH)2(L)     
 MgS(cr)         MgS(L)          MgSO4(II)       MgSO4(I)        MgSO4(L)       
 MgSiO3(II)      MgSiO3(III)     MgSiO3(L)       Mg2SiO4(L)      Mg3N2(cr)      
 NH4CL(III)      NH4F(cr)        NH4F(L)         S(a)            S(b)           
 S(L)            SCL2(L)         S2CL2(L)        Si(cr)          Si(L)          
 SiO2(a-qz)      SiO2(b-qz)      SiO2(b-crt)     SiO2(L)         SiS(cr)        
 SiS(L)          SiS2(cr)        SiS2(L)         Si2N2O(cr)      Si3N4(cr)      





 PHASE CHANGE, REPLACE  NH4CL(II)      WITH  NH4CL(III)     

 POINT ITN      T            H           HE          N           S 
                    O           F           MG          SI          CL
                    BR
   1    5     500.000      -5.659     -12.656     -20.621     -21.951
                 -70.087     -96.673     -84.862     -86.831     -45.204
                 -41.350
 REMOVE  NH4CL(III)     
   1    3     500.000      -5.659     -12.656     -20.662     -21.951
                 -70.087     -96.673     -84.862     -86.831     -46.590
                 -41.350
   2    2     550.000      -5.732     -12.758     -19.634     -21.534
                 -64.825     -88.683     -76.602     -77.472     -44.644
                 -40.629
   3    2     600.000      -5.805     -12.863     -18.778     -21.195
                 -60.446     -82.040     -69.757     -69.712     -43.036
                 -40.042
   4    2     650.000      -5.878     -12.967     -18.054     -20.915
                 -56.746     -76.432     -63.998     -63.180     -41.686
                 -39.557
   5    1     700.000      -5.951     -13.071     -17.436     -20.682
                 -53.579     -71.636     -59.089     -57.610     -40.540
                 -39.152
 REMOVE  MgF2(cr)       
   5    2     700.000      -5.951     -13.071     -17.436     -20.682
                 -53.579     -72.220     -59.089     -57.610     -40.540
                 -39.152
   6    2     750.000      -6.022     -13.172     -16.904     -20.487
                 -50.839     -69.160     -54.860     -52.808     -39.555
                 -38.809

 SINGULAR MATRIX, ITERATION  1  VARIABLE 10(EQLBRM)
   7   16     350.000      -5.346     -12.130     -25.621     -24.001
                 -94.957    -134.518    -124.248    -131.415     -72.625
                 -40.246
 ADD  H2O(L)         
   7    3     350.000      -5.344     -12.126     -25.624     -24.001
                 -96.055    -135.068    -123.150    -129.218     -72.631
                 -43.935
   8    4     400.000      -5.397     -12.204     -23.623     -23.135
                 -83.918    -118.387    -108.434    -114.098     -61.213
                 -43.269
 REMOVE  H2O(L)         
   8    4     400.000      -5.393     -12.198     -23.626     -23.135
                 -84.585    -118.721    -107.767    -112.764     -61.223
                 -43.266




               THERMODYNAMIC EQUILIBRIUM PROPERTIES AT ASSIGNED

                           TEMPERATURE AND PRESSURE

 CASE = saturn         

             REACTANT                       MOLES         ENERGY      TEMP
                                                         KJ/KG-MOL      K
 NAME        H2                           1.0000000         0.000      0.000
 NAME        He                           0.1350000         0.000      0.000
 NAME        N2                           0.0002270         0.000      0.000
 NAME        H2S                          0.0003760         0.000      0.000
 NAME        O2                           0.0049000         0.000      0.000
 NAME        HF                           0.0000007         0.000      0.000
 NAME        Mg                           0.0007960         0.000      0.000
 NAME        Si                           0.0006470         0.000      0.000
 NAME        HCL                          0.0000063         0.000      0.000
 NAME        HBr                          0.0000000         0.000      0.000

 O/F=    0.00000  %FUEL=  0.000000  R,EQ.RATIO=*********  PHI,EQ.RATIO= 0.000000

 THERMODYNAMIC PROPERTIES

 P, BAR            138.33   138.33   138.33   138.33   138.33   138.33   181.70   181.70
 T, K              500.00   550.00   600.00   650.00   700.00   750.00   350.00   400.00
 RHO, KG/CU M    8.1195 0 7.3813 0 6.7662 0 6.2458 0 5.7996 0 5.4130 0 1.5305 1 1.3332 1
 H, KJ/KG         1257.45  1838.82  2420.89  3003.94  3588.26  4174.10  -560.39   96.075
 U, KJ/KG         -446.23  -35.228   376.48   789.16  1203.10  1618.58 -1747.56 -1266.85
 G, KJ/KG        -20802.1 -23036.2 -25323.2 -27658.9 -30039.4 -32461.8 -14154.7 -16143.3
 S, KJ/(KG)(K)    44.1190  45.2272  46.2402  47.1735  48.0396  48.8479  38.8408  40.5984

 M, (1/n)           2.440    2.440    2.440    2.440    2.440    2.440    2.451    2.440
 MW, MOL WT         2.439    2.439    2.439    2.439    2.439    2.439    2.439    2.439
 (dLV/dLP)t      -1.00000 -1.00000 -1.00000 -1.00000 -1.00000 -1.00000 -1.00228 -1.00000
 (dLV/dLT)p        1.0000   1.0000   1.0000   1.0000   1.0000   1.0000   1.0328   1.0000
 Cp, KJ/(KG)(K)   11.6217  11.6336  11.6502  11.6728  11.7005  11.7341  13.2299  11.5934
 GAMMAs            1.4148   1.4142   1.4134   1.4122   1.4109   1.4092   1.3721   1.4162
 SON VEL,M/SEC     1552.5   1628.0   1699.9   1768.6   1834.4   1897.7   1276.3   1389.3

 MOLE FRACTIONS

 *Br             3.012-23 7.925-22 1.216-20 1.230-19 8.978-19 5.042-18 1.311-29 3.361-27
 *CL             5.164-27 5.733-25 2.925-23 8.198-22 1.435-20 1.721-19 0.000  0 9.674-37
 *H              5.527-22 6.701-20 3.672-18 1.092-16 2.009-15 2.515-14 7.748-32 9.241-28
 HBr             6.1014-9 6.1014-9 6.1014-9 6.1014-9 6.1014-9 6.1014-9 1.4129-8 6.1014-9
 HCL             5.565 -6 5.564 -6 5.564 -6 5.564 -6 5.564 -6 5.564 -6 2.701-13 4.851-10
 *HF             1.647 -9 1.325 -8 7.522 -8 3.263 -7 6.392 -7 6.392 -7 4.372-14 4.607-12
 *H2             8.7305-1 8.7305-1 8.7305-1 8.7305-1 8.7305-1 8.7305-1 8.7305-1 8.7305-1
 H2F2            3.130-18 1.235-16 2.645-15 3.539-14 1.018-13 7.954-14 3.149-26 1.283-22
 H2O             6.7885-3 6.7885-3 6.7884-3 6.7883-3 6.7881-3 6.7881-3 2.2629-3 6.7885-3
 H2S             3.3104-4 3.3104-4 3.3104-4 3.3104-4 3.3104-4 3.3104-4 3.3105-4 3.3105-4
 *He             1.1886-1 1.1886-1 1.1886-1 1.1886-1 1.1886-1 1.1886-1 1.1886-1 1.1886-1
 MgCL2           6.291-24 2.579-22 5.637-21 7.597-20 7.006-19 4.771-18 0.000  0 1.671-36
 NH2             3.984-26 7.166-24 5.462-22 2.149-20 5.020-19 7.718-18 8.899-37 2.251-32
 NH3             3.9972-4 3.9971-4 3.9970-4 3.9965-4 3.9943-4 3.9877-4 3.9415-4 3.9416-4
 *N2             1.240-10 1.119 -9 7.196 -9 3.549 -8 1.416 -7 4.746 -7 3.229-15 1.938-13
 *OH             6.941-30 3.259-27 5.530-25 4.285-23 1.793-21 4.576-20 0.000  0 2.843-37
 SH              2.651-19 9.801-18 2.000-16 2.579-15 2.318-14 1.559-13 1.040-26 1.177-23
 S2              2.977-23 1.351-21 3.300-20 4.991-19 5.173-18 3.955-17 4.346-31 6.892-28
 SiF4            1.775-24 1.067-21 2.175-19 1.933-17 8.669-17 3.083-17 8.697-38 2.835-32
 SiHF3           1.194-28 1.883-25 8.522-23 1.480-20 2.105-19 3.629-19 0.000  0 1.484-37
 H2O(L)          0.0000 0 0.0000 0 0.0000 0 0.0000 0 0.0000 0 0.0000 0 4.5256-3 0.0000 0
 MgF2(cr)        3.1877-7 3.1308-7 2.8199-7 1.5644-7 0.0000 0 0.0000 0 3.1960-7 3.1960-7
 MgSiO3(I)       4.3878-4 4.3877-4 4.3874-4 4.3861-4 4.3846-4 4.3846-4 4.3878-4 4.3878-4
 Mg2SiO4(cr)     1.3087-4 1.3087-4 1.3090-4 1.3103-4 1.3118-4 1.3118-4 1.3087-4 1.3087-4
 NH4CL(II)       0.0000 0 0.0000 0 0.0000 0 0.0000 0 0.0000 0 0.0000 0 5.5644-6 5.5639-6

  * THERMODYNAMIC PROPERTIES FITTED TO 20000.K

    PRODUCTS WHICH WERE CONSIDERED BUT WHOSE MOLE FRACTIONS
    WERE LESS THAN 1.000000E-20 FOR ALL ASSIGNED CONDITIONS

 BrCL            BrF             BrF3            BrF5            BrO            
 OBrO            BrOO            BrO3            Br2             BrBrO          
 BrOBr           CLF             CLF3            CLF5            CLO            
 CLO2            CL2             CL2O            *F              FO             
 FO2,FOO         FO2,OFO         F2              F2O             F2O2           
 FS2F            HNO             HNO2            HNO3            HOCL           
 HOF             HO2             HSO3F           H2O2            H2SO4          
 H3F3            H4F4            H5F5            H6F6            H7F7           
 *Mg             MgBr            MgBr2           MgCL            MgF            
 MgF2            MgH             MgN             *MgO            MgOH           
 Mg(OH)2         MgS             Mg2             Mg2F4           *N             
 NF              NF2             NF3             *NH             NHF            
 NHF2            NH2F            NH2OH           *NO             NOCL           
[...]
 MgF2(cr)        3.1960-7 3.1959-7 3.1949-7 3.1450-7 2.9068-7 1.9415-7 0.0000 0 0.0000 0
 MgSiO3(I)       4.3878-4 4.3878-4 4.3878-4 4.3877-4 4.3875-4 4.3865-4 4.3846-4 4.3846-4
 Mg2SiO4(cr)     1.3087-4 1.3087-4 1.3087-4 1.3087-4 1.3089-4 1.3099-4 1.3118-4 1.3118-4
 NH4CL(II)       5.5641-6 5.5585-6 0.0000 0 0.0000 0 0.0000 0 0.0000 0 0.0000 0 0.0000 0
 NH4CL(III)      0.0000 0 0.0000 0 5.2510-6 0.0000 0 0.0000 0 0.0000 0 0.0000 0 0.0000 0

  * THERMODYNAMIC PROPERTIES FITTED TO 20000.K

    PRODUCTS WHICH WERE CONSIDERED BUT WHOSE MOLE FRACTIONS
    WERE LESS THAN 1.000000E-20 FOR ALL ASSIGNED CONDITIONS

 BrCL            BrF             BrF3            BrF5            BrO            
 OBrO            BrOO            BrO3            Br2             BrBrO          
 BrOBr           CLF             CLF3            CLF5            CLO            
 CLO2            CL2             CL2O            *F              FO             
 FO2,FOO         FO2,OFO         F2              F2O             F2O2           
 FS2F            HNO             HNO2            HNO3            HOCL           
 HOF             HO2             HSO3F           H2O2            H2SO4          
 H3F3            H4F4            H5F5            H6F6            H7F7           
 *Mg             MgBr            MgBr2           MgCL            MgF            
 MgF2            MgH             MgN             *MgO            MgOH           
 Mg(OH)2         MgS             Mg2             Mg2F4           *N             
 NF              NF2             NF3             *NH             NHF            
 NHF2            NH2F            NH2OH           *NO             NOCL           
 NOF             NOF3            NO2             NO2CL           NO2F           
 NO3             NO3F            N2F2            N2F4            N2H2           
 NH2NO2          N2H4            N2O             N2O3            N2O4           
 N2O5            N3              N3H             *O              *O2            
 O3              *S              SCL             SCL2            SF             
 SF2             SF3             SF4             SF5             SF6            
 SN              SO              SOF2            SO2             SO2CL2         
 SO2FCL          SO2F2           SO3             S2CL2           S2F2           
 S2O             S3              S4              S5              S6             
 S7              S8              *Si             SiBr            SiBr2          
 SiBr3           SiBr4           SiCL            SiCL2           SiCL3          
 SiCL4           SiF             SiFCL           SiF2            SiF3           
 SiH             SiHBr3          SiHCL           SiHCL3          SiHF           
 SiH2            SiH2Br2         SiH2CL2         SiH2F2          SiH3           
 SiH3Br          SiH3CL          SiH3F           SiH4            SiN            
 SiO             SiO2            SiS             SiS2            Si2            
 Si2F6           Si2N            Si3             Br2(cr)         Br2(L)         
 H2O(cr)         H2O(L)          H2SO4(L)        Mg(cr)          Mg(L)          
 MgBr2(cr)       MgBr2(L)        MgCL2(cr)       MgCL2(L)        MgF2(L)        
 MgH2(b)         MgH2(L)         MgO(cr)         MgO(L)          Mg(OH)2(cr)    
 Mg(OH)2(L)      MgS(cr)         MgS(L)          MgSO4(II)       MgSO4(I)       
 MgSO4(L)        MgSiO3(II)      MgSiO3(III)     MgSiO3(L)       Mg2SiO4(L)     
 Mg3N2(cr)       NH4F(cr)        NH4F(L)         S(a)            S(b)           
 S(L)            SCL2(L)         S2CL2(L)        Si(cr)          Si(L)          
 SiO2(a-qz)      SiO2(b-qz)      SiO2(b-crt)     SiO2(L)         SiS(cr)        
 SiS(L)          SiS2(cr)        SiS2(L)         Si2N2O(cr)      Si3N4(cr)      






 POINT ITN      T            H           HE          N           S 
                    O           F           MG          SI          CL
                    BR

 SINGULAR MATRIX, ITERATION  1  VARIABLE 10(EQLBRM)
   1   16     350.000      -5.102     -11.641     -25.866     -24.001
                 -94.957    -134.518    -124.248    -131.415     -73.358
                 -40.014
 ADD  H2O(L)         
   1    4     350.000      -5.099     -11.636     -25.869     -24.001
                 -96.545    -135.313    -122.660    -128.238     -73.366
                 -44.263
   2    4     400.000      -5.150     -11.710     -23.870     -23.135
                 -84.412    -118.634    -107.940    -113.110     -61.954
                 -43.022
 REMOVE  H2O(L)         
   2    3     400.000      -5.149     -11.709     -23.870     -23.135
                 -84.585    -118.721    -107.767    -112.764     -61.956
                 -43.021
   3    2     450.000      -5.210     -11.796     -22.310     -22.472
                 -76.526    -106.460     -95.012     -98.326     -53.171
                 -41.870
 PHASE CHANGE, REPLACE  NH4CL(II)      WITH  NH4CL(III)     
   4    2     500.000      -5.279     -11.894     -21.056     -21.951
                 -70.087     -96.673     -84.862     -86.831     -46.292
                 -40.969
   5    5     550.000      -5.351     -11.997     -19.721     -21.534
                 -64.825     -88.683     -76.602     -77.472     -41.022
                 -40.249
 REMOVE  NH4CL(III)     
   5    5     550.000      -5.351     -11.997     -20.015     -21.534
                 -64.825     -88.683     -76.602     -77.472     -44.263
                 -40.248
   6    2     600.000      -5.424     -12.101     -19.159     -21.195
                 -60.446     -82.040     -69.757     -69.712     -42.655
                 -39.661
   7    2     650.000      -5.498     -12.206     -18.435     -20.915
                 -56.746     -76.432     -63.998     -63.180     -41.306
                 -39.176
   8    2     700.000      -5.570     -12.309     -17.816     -20.682
                 -53.579     -71.636     -59.089     -57.610     -40.159
                 -38.771
 REMOVE  MgF2(cr)       
   8    2     700.000      -5.570     -12.309     -17.816     -20.682
                 -53.579     -71.839     -59.089     -57.610     -40.159
                 -38.771




               THERMODYNAMIC EQUILIBRIUM PROPERTIES AT ASSIGNED

                           TEMPERATURE AND PRESSURE

 CASE = saturn         

             REACTANT                       MOLES         ENERGY      TEMP
                                                         KJ/KG-MOL      K
 NAME        H2                           1.0000000         0.000      0.000
 NAME        He                           0.1350000         0.000      0.000
 NAME        N2                           0.0002270         0.000      0.000
 NAME        H2S                          0.0003760         0.000      0.000
 NAME        O2                           0.0049000         0.000      0.000
 NAME        HF                           0.0000007         0.000      0.000
 NAME        Mg                           0.0007960         0.000      0.000
 NAME        Si                           0.0006470         0.000      0.000
 NAME        HCL                          0.0000063         0.000      0.000
 NAME        HBr                          0.0000000         0.000      0.000

 O/F=    0.00000  %FUEL=  0.000000  R,EQ.RATIO=*********  PHI,EQ.RATIO= 0.000000

 THERMODYNAMIC PROPERTIES

 P, BAR            296.30   296.30   296.30   296.30   296.30   296.30   296.30   296.30
 T, K              350.00   400.00   450.00   500.00   550.00   600.00   650.00   700.00
 RHO, KG/CU M    2.4981 1 2.1740 1 1.9324 1 1.7392 1 1.5811 1 1.4493 1 1.3378 1 1.2423 1
 H, KJ/KG         -575.43   96.074   676.24  1257.07  1838.82  2420.89  3003.94  3588.25
 U, KJ/KG        -1761.55 -1266.85  -857.06  -446.59  -35.228   376.48   789.15  1203.10
 G, KJ/KG        -13574.4 -15476.8 -17458.2 -19504.3 -21608.6 -23765.9 -25971.8 -28222.6
 S, KJ/(KG)(K)    37.1399  38.9322  40.2988  41.5228  42.6317  43.6447  44.5780  45.4441

 M, (1/n)           2.453    2.440    2.440    2.440    2.440    2.440    2.440    2.440
 MW, MOL WT         2.439    2.439    2.439    2.439    2.439    2.439    2.439    2.439
 (dLV/dLP)t      -1.00140 -1.00000 -1.00000 -1.00000 -1.00000 -1.00000 -1.00000 -1.00000
 (dLV/dLT)p        1.0201   1.0000   1.0000   1.0000   1.0000   1.0000   1.0000   1.0000
 Cp, KJ/(KG)(K)   12.6248  11.5934  11.6111  11.6247  11.6336  11.6502  11.6726  11.7004
 GAMMAs            1.3849   1.4162   1.4153   1.4147   1.4142   1.4134   1.4123   1.4109
 SON VEL,M/SEC     1281.7   1389.3   1473.1   1552.5   1628.0   1699.9   1768.6   1834.4

 MOLE FRACTIONS

 *Br             5.785-30 2.632-27 8.321-26 2.842-24 5.415-22 8.306-21 8.406-20 6.134-19
 *H              6.065-32 7.237-28 1.156-25 2.063-23 4.578-20 2.509-18 7.463-17 1.373-15
 HBr             7.9658-9 6.1014-9 6.1014-9 6.1014-9 6.1014-9 6.1014-9 6.1014-9 6.1014-9
 HCL             1.014-13 1.824-10 9.960 -9 5.438 -7 5.565 -6 5.564 -6 5.564 -6 5.564 -6
 *HF             2.679-14 3.607-12 3.305-11 3.168-10 9.056 -9 5.140 -8 2.230 -7 6.392 -7
 *H2             8.7305-1 8.7305-1 8.7305-1 8.7305-1 8.7305-1 8.7305-1 8.7305-1 8.7305-1
 H2F2            1.929-26 1.283-22 6.306-21 3.364-19 1.235-16 2.645-15 3.539-14 2.180-13
 H2O             1.3864-3 6.7885-3 6.7885-3 6.7885-3 6.7885-3 6.7884-3 6.7884-3 6.7881-3
 H2S             3.3105-4 3.3105-4 3.3105-4 3.3104-4 3.3104-4 3.3104-4 3.3104-4 3.3104-4
 *He             1.1886-1 1.1886-1 1.1886-1 1.1886-1 1.1886-1 1.1886-1 1.1886-1 1.1886-1
 MgCL2           0.000  0 2.363-37 3.703-32 6.248-27 2.580-22 5.637-21 7.597-20 7.006-19
 NH2             6.965-37 1.763-32 4.248-30 1.158-27 4.896-24 3.732-22 1.468-20 3.432-19
 NH3             3.9415-4 3.9416-4 3.9416-4 3.9435-4 3.9972-4 3.9971-4 3.9970-4 3.9966-4
 *N2             1.212-15 7.288-14 6.926-13 7.124-12 2.439-10 1.568 -9 7.737 -9 3.089 -8
 SH              8.141-27 9.216-24 4.149-22 2.039-20 6.697-18 1.366-16 1.762-15 1.584-14
 S2              2.663-31 4.226-28 2.308-26 1.394-24 6.307-22 1.540-20 2.330-19 2.415-18
 SiF4            5.328-38 1.738-32 1.604-29 1.679-26 4.981-22 1.016-19 9.025-18 1.857-16
 SiHF3           0.000  0 1.162-37 3.037-34 9.138-31 1.286-25 5.823-23 1.011-20 4.508-19
 H2O(L)          5.4021-3 0.0000 0 0.0000 0 0.0000 0 0.0000 0 0.0000 0 0.0000 0 0.0000 0
 MgF2(cr)        3.1960-7 3.1960-7 3.1959-7 3.1950-7 3.1507-7 2.9390-7 2.0812-7 0.0000 0
 MgSiO3(I)       4.3878-4 4.3878-4 4.3878-4 4.3878-4 4.3877-4 4.3875-4 4.3866-4 4.3846-4
 Mg2SiO4(cr)     1.3087-4 1.3087-4 1.3087-4 1.3087-4 1.3087-4 1.3089-4 1.3098-4 1.3118-4
 NH4CL(II)       5.5644-6 5.5642-6 5.5607-6 0.0000 0 0.0000 0 0.0000 0 0.0000 0 0.0000 0
 NH4CL(III)      0.0000 0 0.0000 0 0.0000 0 5.3690-6 0.0000 0 0.0000 0 0.0000 0 0.0000 0

  * THERMODYNAMIC PROPERTIES FITTED TO 20000.K

    PRODUCTS WHICH WERE CONSIDERED BUT WHOSE MOLE FRACTIONS
    WERE LESS THAN 1.000000E-20 FOR ALL ASSIGNED CONDITIONS

 BrCL            BrF             BrF3            BrF5            BrO            
 OBrO            BrOO            BrO3            Br2             BrBrO          
 BrOBr           *CL             CLF             CLF3            CLF5           
 CLO             CLO2            CL2             CL2O            *F             
 FO              FO2,FOO         FO2,OFO         F2              F2O            
 F2O2            FS2F            HNO             HNO2            HNO3           
 HOCL            HOF             HO2             HSO3F           H2O2           
 H2SO4           H3F3            H4F4            H5F5            H6F6           
 H7F7            *Mg             MgBr            MgBr2           MgCL           
 MgF             MgF2            MgH             MgN             *MgO           
 MgOH            Mg(OH)2         MgS             Mg2             Mg2F4          
 *N              NF              NF2             NF3             *NH            
 NHF             NHF2            NH2F            NH2OH           *NO            
 NOCL            NOF             NOF3            NO2             NO2CL          
 NO2F            NO3             NO3F            N2F2            N2F4           
 N2H2            NH2NO2          N2H4            N2O             N2O3           
 N2O4            N2O5            N3              N3H             *O             
 *OH             *O2             O3              *S              SCL            
 SCL2            SF              SF2             SF3             SF4            
 SF5             SF6             SN              SO              SOF2           
 SO2             SO2CL2          SO2FCL          SO2F2           SO3            
 S2CL2           S2F2            S2O             S3              S4             
 S5              S6              S7              S8              *Si            
 SiBr            SiBr2           SiBr3           SiBr4           SiCL           
 SiCL2           SiCL3           SiCL4           SiF             SiFCL          
 SiF2            SiF3            SiH             SiHBr3          SiHCL          
 SiHCL3          SiHF            SiH2            SiH2Br2         SiH2CL2        
 SiH2F2          SiH3            SiH3Br          SiH3CL          SiH3F          
 SiH4            SiN             SiO             SiO2            SiS            
 SiS2            Si2             Si2F6           Si2N            Si3            
 Br2(cr)         Br2(L)          H2O(cr)         H2SO4(L)        Mg(cr)         
 Mg(L)           MgBr2(cr)       MgBr2(L)        MgCL2(cr)       MgCL2(L)       
 MgF2(L)         MgH2(b)         MgH2(L)         MgO(cr)         MgO(L)         
 Mg(OH)2(cr)     Mg(OH)2(L)      MgS(cr)         MgS(L)          MgSO4(II)      
 MgSO4(I)        MgSO4(L)        MgSiO3(II)      MgSiO3(III)     MgSiO3(L)      
 Mg2SiO4(L)      Mg3N2(cr)       NH4F(cr)        NH4F(L)         S(a)           
 S(b)            S(L)            SCL2(L)         S2CL2(L)        Si(cr)         
 Si(L)           SiO2(a-qz)      SiO2(b-qz)      SiO2(b-crt)     SiO2(L)        
 SiS(cr)         SiS(L)          SiS2(cr)        SiS2(L)         Si2N2O(cr)     
 Si3N4(cr)      






 POINT ITN      T            H           HE          N           S 
                    O           F           MG          SI          CL
                    BR
   1    2     750.000      -5.642     -12.411     -17.283     -20.487
                 -50.839     -68.779     -54.860     -52.808     -39.174
                 -38.428




               THERMODYNAMIC EQUILIBRIUM PROPERTIES AT ASSIGNED

                           TEMPERATURE AND PRESSURE

 CASE = saturn         

             REACTANT                       MOLES         ENERGY      TEMP
                                                         KJ/KG-MOL      K
 NAME        H2                           1.0000000         0.000      0.000
 NAME        He                           0.1350000         0.000      0.000
 NAME        N2                           0.0002270         0.000      0.000
 NAME        H2S                          0.0003760         0.000      0.000
 NAME        O2                           0.0049000         0.000      0.000
 NAME        HF                           0.0000007         0.000      0.000
 NAME        Mg                           0.0007960         0.000      0.000
 NAME        Si                           0.0006470         0.000      0.000
 NAME        HCL                          0.0000063         0.000      0.000
 NAME        HBr                          0.0000000         0.000      0.000

 O/F=    0.00000  %FUEL=  0.000000  R,EQ.RATIO=*********  PHI,EQ.RATIO= 0.000000

 THERMODYNAMIC PROPERTIES

 P, BAR            296.30
 T, K              750.00
 RHO, KG/CU M    1.1594 1
 H, KJ/KG         4174.08
 U, KJ/KG         1618.56
 G, KJ/KG        -30515.2
 S, KJ/(KG)(K)    46.2524

 M, (1/n)           2.440
 MW, MOL WT         2.439
 (dLV/dLP)t      -1.00000
 (dLV/dLT)p        1.0000
 Cp, KJ/(KG)(K)   11.7337
 GAMMAs            1.4092
 SON VEL,M/SEC     1897.7

 MOLE FRACTIONS

 *Br             3.445-18
 *CL             1.176-19
 *H              1.718-14
 HBr             6.1014-9
 HCL             5.5643-6
 *HF             6.3920-7
 *H2             8.7305-1
 H2F2            1.704-13
 H2O             6.7881-3
 H2S             3.3104-4
 *He             1.1886-1
 MgCL2           4.771-18
 NH2             5.283-18
 NH3             3.9951-4
 *N2             1.0382-7
 *OH             3.127-20
 SH              1.065-13
 S2              1.847-17
 SiF4            6.604-17
 SiHF3           7.773-19
 MgSiO3(I)       4.3846-4
 Mg2SiO4(cr)     1.3118-4

  * THERMODYNAMIC PROPERTIES FITTED TO 20000.K

    PRODUCTS WHICH WERE CONSIDERED BUT WHOSE MOLE FRACTIONS
    WERE LESS THAN 1.000000E-20 FOR ALL ASSIGNED CONDITIONS

 BrCL            BrF             BrF3            BrF5            BrO            
 OBrO            BrOO            BrO3            Br2             BrBrO          
 BrOBr           CLF             CLF3            CLF5            CLO            
 CLO2            CL2             CL2O            *F              FO             
 FO2,FOO         FO2,OFO         F2              F2O             F2O2           
 FS2F            HNO             HNO2            HNO3            HOCL           
 HOF             HO2             HSO3F           H2O2            H2SO4          
 H3F3            H4F4            H5F5            H6F6            H7F7           
 *Mg             MgBr            MgBr2           MgCL            MgF            
 MgF2            MgH             MgN             *MgO            MgOH           
 Mg(OH)2         MgS             Mg2             Mg2F4           *N             
 NF              NF2             NF3             *NH             NHF            
 NHF2            NH2F            NH2OH           *NO             NOCL           
 NOF             NOF3            NO2             NO2CL           NO2F           
 NO3             NO3F            N2F2            N2F4            N2H2           
 NH2NO2          N2H4            N2O             N2O3            N2O4           
 N2O5            N3              N3H             *O              *O2            
 O3              *S              SCL             SCL2            SF             
 SF2             SF3             SF4             SF5             SF6            
 SN              SO              SOF2            SO2             SO2CL2         
 SO2FCL          SO2F2           SO3             S2CL2           S2F2           
 S2O             S3              S4              S5              S6             
 S7              S8              *Si             SiBr            SiBr2          
 SiBr3           SiBr4           SiCL            SiCL2           SiCL3          
 SiCL4           SiF             SiFCL           SiF2            SiF3           
 SiH             SiHBr3          SiHCL           SiHCL3          SiHF           
 SiH2            SiH2Br2         SiH2CL2         SiH2F2          SiH3           
 SiH3Br          SiH3CL          SiH3F           SiH4            SiN            
 SiO             SiO2            SiS             SiS2            Si2            
 Si2F6           Si2N            Si3             Br2(cr)         Br2(L)         
 H2O(cr)         H2O(L)          H2SO4(L)        Mg(cr)          Mg(L)          
 MgBr2(cr)       MgBr2(L)        MgCL2(cr)       MgCL2(L)        MgF2(cr)       
 MgF2(L)         MgH2(b)         MgH2(L)         MgO(cr)         MgO(L)         
 Mg(OH)2(cr)     Mg(OH)2(L)      MgS(cr)         MgS(L)          MgSO4(II)      
 MgSO4(I)        MgSO4(L)        MgSiO3(II)      MgSiO3(III)     MgSiO3(L)      
 Mg2SiO4(L)      Mg3N2(cr)       NH4CL(II)       NH4CL(III)      NH4F(cr)       
 NH4F(L)         S(a)            S(b)            S(L)            SCL2(L)        
 S2CL2(L)        Si(cr)          Si(L)           SiO2(a-qz)      SiO2(b-qz)     
 SiO2(b-crt)     SiO2(L)         SiS(cr)         SiS(L)          SiS2(cr)       
 SiS2(L)         Si2N2O(cr)      Si3N4(cr)      



