
 *******************************************************************************

         NASA-GLENN CHEMICAL EQUILIBRIUM PROGRAM CEA2, MAY 21, 2004
                   BY  BONNIE MCBRIDE AND SANFORD GORDON
      REFS: NASA RP-1311, PART I, 1994 AND NASA RP-1311, PART II, 1996

 *******************************************************************************



 prob
 case=saturn tp
 t,k= 1300,1350,1400,1450,1500,1600,1700,1800,1900,2000
 p,bar= 2036.69, 2336.48, 2669.30, 3037.79, 3444.73, 4385.78, 5517.62, 6867.92, 8
 466.92, 10347.58
 react
   name=H2 moles=1.0
   name=He moles=0.135
 #  name=CH4 moles=5.33e-3
   name=N2 moles = 2.27e-4
   name=H2S moles=3.76e-4
 #  name=PH3 moles = 7.28e-6
  
 # ten time solar water
   name=O2 moles = 4.9e-3
 # all others are ten time solar
   name=HF moles = 7.26e-7
 #  name=Na moles = 3.48e-5
   name=Mg moles = 7.96e-4
   name=Si moles=6.47e-4
  
   name=HCL moles = 6.32e-6
 #  name=K moles = 2.14e-6
 #  name=Ca moles = 4.38e-5
 #  name=GeH4 moles = 8.93e-8
   name=HBr moles=6.93e-9
  
 output    trace=1e-15
 plot t p Mg2SiO4(cr) MgSiO3(I) MgSiO3(II) MgSiO3(III) MgSiO3(L) SiO2 SiO SiH4 Si
 H3 SiH2
  
 end

 OPTIONS: TP=T  HP=F  SP=F  TV=F  UV=F  SV=F  DETN=F  SHOCK=F  REFL=F  INCD=F
 RKT=F  FROZ=F  EQL=F  IONS=F  SIUNIT=T  DEBUGF=F  SHKDBG=F  DETDBG=F  TRNSPT=F

 T,K =  1300.0000  1350.0000  1400.0000  1450.0000  1500.0000  1600.0000  1700.0000

 T,K =  1800.0000  1900.0000  2000.0000

 TRACE= 1.00E-15  S/R= 0.000000E+00  H/R= 0.000000E+00  U/R= 0.000000E+00

 P,BAR =  2036.690000  2336.480000  2669.300000  3037.790000  3444.730000  4385.780000  5517.620000

 P,BAR =  6867.920000  8466.920000 10347.580000

    REACTANT           MOLES    (ENERGY/R),K   TEMP,K  DENSITY
        EXPLODED FORMULA
 N: H2               1.000000   0.000000E+00     0.00  0.0000
          H  2.00000
 N: He               0.135000   0.000000E+00     0.00  0.0000
          HE 1.00000
 N: N2               0.000227   0.000000E+00     0.00  0.0000
          N  2.00000
 N: H2S              0.000376   0.000000E+00     0.00  0.0000
          H  2.00000  S  1.00000
 N: O2               0.004900   0.000000E+00     0.00  0.0000
          O  2.00000
 N: HF               0.000001   0.000000E+00     0.00  0.0000
          H  1.00000  F  1.00000
 N: Mg               0.000796   0.000000E+00     0.00  0.0000
          MG 1.00000
 N: Si               0.000647   0.000000E+00     0.00  0.0000
          SI 1.00000
 N: HCL              0.000006   0.000000E+00     0.00  0.0000
          H  1.00000  CL 1.00000
 N: HBr              0.000000   0.000000E+00     0.00  0.0000
          H  1.00000  BR 1.00000

  SPECIES BEING CONSIDERED IN THIS SYSTEM
 (CONDENSED PHASE MAY HAVE NAME LISTED SEVERAL TIMES)
  LAST thermo.inp UPDATE:    9/09/04

  g 3/97  *Br              tpis89  BrCL             tpis89  BrF            
  tpis89  BrF3             tpis89  BrF5             j 3/96  BrO            
  j 3/96  OBrO             j 3/96  BrOO             j 3/96  BrO3           
  tpis89  Br2              j 3/96  BrBrO            j 3/96  BrOBr          
  g 7/97  *CL              tpis89  CLF              tpis89  CLF3           
  tpis89  CLF5             tpis89  CLO              g 7/93  CLO2           
  tpis89  CL2              tpis89  CL2O             g 5/97  *F             
  j 9/95  FO               j 9/95  FO2,FOO          j 9/95  FO2,OFO        
  tpis89  F2               g 4/99  F2O              j 9/95  F2O2           
  j 6/76  FS2F             g 6/97  *H               tpis89  HBr            
  tpis89  HCL              tpis89  *HF              g10/01  HNO            
  tpis89  HNO2             g 5/99  HNO3             g 1/01  HOCL           
  tpis89  HOF              g 4/02  HO2              j 6/72  HSO3F          
  tpis78  *H2              tpis89  H2F2             g 8/89  H2O            
  g 6/99  H2O2             g 4/01  H2S              tpis89  H2SO4          
  tpis89  H3F3             tpis89  H4F4             tpis89  H5F5           
  tpis89  H6F6             tpis89  H7F7             g 5/97  *He            
  g 6/97  *Mg              tpis96  MgBr             tpis96  MgBr2          
  tpis96  MgCL             tpis96  MgCL2            tpis96  MgF            
  tpis96  MgF2             tpis96  MgH              j 3/64  MgN            
  tpis96  *MgO             tpis96  MgOH             tpis96  Mg(OH)2        
  tpis96  MgS              tpis96  Mg2              j12/75  Mg2F4          
  g 5/97  *N               tpis89  NF               g 4/99  NF2            
  g 4/99  NF3              g 4/99  *NH              tpis89  NHF            
  tpis89  NHF2             g 3/01  NH2              tpis89  NH2F           
  tpis89  NH3              tpis89  NH2OH            tpis89  *NO            
  g 4/99  NOCL             g 4/99  NOF              tpis89  NOF3           
  g 4/99  NO2              g 4/99  NO2CL            g 4/99  NO2F           
  j12/64  NO3              tpis89  NO3F             tpis78  *N2            
  tpis89  N2F2             tpis89  N2F4             g 5/99  N2H2           
  tpis89  NH2NO2           g 4/99  N2H4             g 4/99  N2O            
  g 4/99  N2O3             tpis89  N2O4             g 4/99  N2O5           
  tpis89  N3               g 4/99  N3H              g 5/97  *O             
  g 4/02  *OH              tpis89  *O2              g 8/01  O3             
  g 5/97  *S               j 6/78  SCL              j 6/78  SCL2           
  tpis89  SF               tpis89  SF2              tpis89  SF3            
  tpis89  SF4              tpis89  SF5              tpis89  SF6            
  g10/01  SH               tpis89  SN               tpis89  SO             
  tpis89  SOF2             tpis89  SO2              j 6/71  SO2CL2         
  j 6/71  SO2FCL           tpis89  SO2F2            tpis89  SO3            
  tpis89  S2               g12/00  S2CL2            j 6/76  S2F2           
  tpis89  S2O              tpis89  S3               tpis89  S4             
  tpis89  S5               tpis89  S6               tpis89  S7             
  tpis89  S8               g 8/97  *Si              tpis91  SiBr           
  tpis91  SiBr2            tpis91  SiBr3            tpis91  SiBr4          
  tpis91  SiCL             tpis91  SiCL2            tpis91  SiCL3          
  tpis91  SiCL4            tpis91  SiF              tpis91  SiFCL          
  tpis91  SiF2             tpis91  SiF3             g 6/01  SiF4           
  tpis91  SiH              j12/76  SiHBr3           tpis91  SiHCL          
  j12/76  SiHCL3           tpis91  SiHF             j 6/76  SiHF3          
  g 3/01  SiH2             j12/76  SiH2Br2          j12/76  SiH2CL2        
  j 6/76  SiH2F2           g 3/99  SiH3             j12/76  SiH3Br         
  j12/76  SiH3CL           j 6/76  SiH3F            tpis91  SiH4           
  g 5/99  SiN              tpis91  SiO              tpis91  SiO2           
  tpis91  SiS              tpis91  SiS2             tpis91  Si2            
  g 6/01  Si2F6            j 3/67  Si2N             g 7/95  Si3            
  g 8/01  Br2(cr)          g 8/01  Br2(L)           g 8/01  Br2(L)         
  g11/99  H2O(cr)          g 8/01  H2O(L)           g 8/01  H2O(L)         
  j 9/77  H2SO4(L)         srd 93  Mg(cr)           srd 93  Mg(cr)         
  srd 93  Mg(L)            tpis96  MgBr2(cr)        tpis96  MgBr2(L)       
  tpis96  MgCL2(cr)        tpis96  MgCL2(cr)        tpis96  MgCL2(L)       
  tpis96  MgF2(cr)         tpis96  MgF2(cr)         tpis96  MgF2(L)        
  tpis96  MgH2(b)          tpis96  MgH2(L)          tpis96  MgO(cr)        
  tpis96  MgO(cr)          tpis96  MgO(L)           tpis96  Mg(OH)2(cr)    
  tpis96  Mg(OH)2(cr)      tpis96  Mg(OH)2(L)       tpis96  MgS(cr)        
  tpis96  MgS(cr)          tpis96  MgS(L)           tpis96  MgSO4(II)      
  tpis96  MgSO4(II)        tpis96  MgSO4(I)         tpis96  MgSO4(L)       
  j12/67  MgSiO3(I)        j12/67  MgSiO3(II)       j12/67  MgSiO3(III)    
  j12/67  MgSiO3(L)        g11/00  Mg2SiO4(cr)      g11/00  Mg2SiO4(cr)    
  g11/00  Mg2SiO4(L)       tpis96  Mg3N2(cr)        j 9/65  NH4CL(II)      
  j 9/65  NH4CL(III)       j 9/65  NH4CL(III)       tpis89  NH4F(cr)       
  tpis89  NH4F(cr)         tpis89  NH4F(L)          tpis89  S(a)           
  tpis89  S(b)             tpis89  S(L)             tpis89  S(L)           
  tpis89  S(L)             tpis89  S(L)             tpis89  S(L)           
  j 6/78  SCL2(L)          j 6/78  S2CL2(L)         tpis91  Si(cr)         
  tpis91  Si(cr)           tpis91  Si(L)            tpis91  SiO2(a-qz)     
  tpis91  SiO2(b-qz)       tpis91  SiO2(b-crt)      tpis91  SiO2(L)        
  tpis91  SiS(cr)          tpis91  SiS(L)           tpis91  SiS2(cr)       
  tpis91  SiS2(cr)         tpis91  SiS2(L)          g 7/95  Si2N2O(cr)     
  g 7/95  Si2N2O(cr)       tpis91  Si3N4(cr)        tpis91  Si3N4(cr)      

 O/F =   0.000000

                       EFFECTIVE FUEL     EFFECTIVE OXIDANT        MIXTURE
 ENTHALPY                  h(2)/R              h(1)/R               h0/R
 (KG-MOL)(K)/KG        0.00000000E+00      0.00000000E+00      0.00000000E+00

 KG-FORM.WT./KG             bi(2)               bi(1)               b0i
  *H                   0.72230548E+00      0.00000000E+00      0.72230548E+00
  *He                  0.48737123E-01      0.00000000E+00      0.48737123E-01
  *N                   0.16390114E-03      0.00000000E+00      0.16390114E-03
  *S                   0.13574191E-03      0.00000000E+00      0.13574191E-03
  *O                   0.35379541E-02      0.00000000E+00      0.35379541E-02
  *F                   0.26209741E-06      0.00000000E+00      0.26209741E-06
  *Mg                  0.28736852E-03      0.00000000E+00      0.28736852E-03
  *Si                  0.23357717E-03      0.00000000E+00      0.23357717E-03
  *CL                  0.22816194E-05      0.00000000E+00      0.22816194E-05
  *Br                  0.25018390E-08      0.00000000E+00      0.25018390E-08

 POINT ITN      T            H           HE          N           S 
                    O           F           MG          SI          CL
                    BR
   1   34    1300.000      -5.356     -11.437     -15.247     -19.585
                 -34.722     -54.682     -10.725      -4.989     -34.716
                 -36.254
 ADD  MgO(cr)        
   1    6    1300.000      -5.356     -11.437     -15.247     -19.585
                 -34.632     -54.670     -28.067      -5.000     -33.269
                 -36.091
 ADD  SiO2(b-crt)    
   1    8    1300.000      -5.355     -11.438     -15.250     -19.575
                 -34.783     -49.949     -27.916     -24.736     -32.649
                 -35.720
 ADD  Mg2SiO4(cr)    

 SINGULAR MATRIX, ITERATION  0  VARIABLE 14(EQLBRM)

 TRY REMOVING CONDENSED SPECIES (EQLBRM)
 REMOVE  SiO2(b-crt)    
   1    1    1300.000      -5.355     -11.438     -15.250     -19.575
                 -34.783     -49.949     -27.916     -30.373     -32.649
                 -35.720
 REMOVE  MgO(cr)        
   1    6    1300.000      -5.356     -11.437     -15.249     -19.579
                 -34.722     -53.734     -40.248      -5.953     -32.936
                 -35.880
 ADD  SiO2(b-crt)    
   1    7    1300.000      -5.355     -11.438     -15.250     -19.575
                 -34.783     -49.948     -30.734     -24.736     -32.649
                 -35.720
 ADD  MgSiO3(III)    

 SINGULAR MATRIX, ITERATION  0  VARIABLE 14(EQLBRM)

 TRY REMOVING CONDENSED SPECIES (EQLBRM)
 REMOVE  SiO2(b-crt)    
   1    2    1300.000      -5.355     -11.438     -15.250     -19.575
                 -34.783     -49.949     -30.504     -25.196     -32.649
                 -35.720
   2    2    1350.000      -5.408     -11.511     -15.121     -19.549
                 -33.987     -49.065     -29.322     -23.860     -32.388
                 -35.653
   3    3    1400.000      -5.459     -11.582     -15.007     -19.528
                 -33.249     -48.246     -28.232     -22.625     -32.149
                 -35.594
   4    3    1450.000      -5.509     -11.651     -14.907     -19.511
                 -32.565     -47.487     -27.225     -21.480     -31.929
                 -35.542
   5    3    1500.000      -5.558     -11.719     -14.820     -19.498
                 -31.928     -46.780     -26.291     -20.415     -31.726
                 -35.495
   6    4    1600.000      -5.653     -11.849     -14.682     -19.482
                 -30.780     -45.505     -24.619     -18.494     -31.365
                 -35.418
   7    4    1700.000      -5.744     -11.973     -14.587     -19.476
                 -29.773     -44.388     -23.166     -16.810     -31.055
                 -35.358
   8    4    1800.000      -5.831     -12.092     -14.527     -19.480
                 -28.885     -43.401     -21.896     -15.320     -30.786
                 -35.313




               THERMODYNAMIC EQUILIBRIUM PROPERTIES AT ASSIGNED

                           TEMPERATURE AND PRESSURE

 CASE = saturn         

             REACTANT                       MOLES         ENERGY      TEMP
                                                         KJ/KG-MOL      K
 NAME        H2                           1.0000000         0.000      0.000
 NAME        He                           0.1350000         0.000      0.000
 NAME        N2                           0.0002270         0.000      0.000
 NAME        H2S                          0.0003760         0.000      0.000
 NAME        O2                           0.0049000         0.000      0.000
 NAME        HF                           0.0000007         0.000      0.000
 NAME        Mg                           0.0007960         0.000      0.000
 NAME        Si                           0.0006470         0.000      0.000
 NAME        HCL                          0.0000063         0.000      0.000
 NAME        HBr                          0.0000000         0.000      0.000

 O/F=    0.00000  %FUEL=  0.000000  R,EQ.RATIO=*********  PHI,EQ.RATIO= 0.000000

 THERMODYNAMIC PROPERTIES

 P, BAR           2036.69  2036.69  2036.69  2036.69  2036.69  2036.69  2036.69  2036.69
 T, K             1300.00  1350.00  1400.00  1450.00  1500.00  1600.00  1700.00  1800.00
 RHO, KG/CU M    4.5979 1 4.4276 1 4.2695 1 4.1222 1 3.9848 1 3.7357 1 3.5158 1 3.3204 1
 H, KJ/KG         10796.6  11420.5  12048.5  12680.6  13316.7  14601.0  15900.7  17215.6
 U, KJ/KG         6366.96  6820.48  7278.10  7739.80  8205.53  9148.94  10107.9  11081.8
 G, KJ/KG        -49379.5 -51705.8 -54055.3 -56427.3 -58821.1 -63672.1 -68603.9 -73612.6
 S, KJ/(KG)(K)    46.2893  46.7602  47.2170  47.6606  48.0919  48.9207  49.7086  50.4601

 M, (1/n)           2.440    2.440    2.440    2.440    2.440    2.440    2.440    2.440
 MW, MOL WT         2.439    2.439    2.439    2.439    2.439    2.439    2.439    2.439
 (dLV/dLP)t      -1.00001 -1.00002 -1.00003 -1.00004 -1.00005 -1.00007 -1.00009 -1.00011
 (dLV/dLT)p        1.0001   1.0001   1.0001   1.0002   1.0002   1.0003   1.0004   1.0005
 Cp, KJ/(KG)(K)   12.4373  12.5192  12.6011  12.6825  12.7631  12.9210  13.0740  13.2225
 GAMMAs            1.3774   1.3740   1.3707   1.3675   1.3643   1.3583   1.3527   1.3474
 SON VEL,M/SEC     2470.1   2514.1   2557.1   2599.3   2640.7   2721.3   2799.3   2874.9

 MOLE FRACTIONS

 *Br             3.912-14 6.620-14 1.080-13 1.705-13 2.612-13 5.677-13 1.130-12 2.089-12
 *CL             1.231-13 2.618-13 5.281-13 1.015-12 1.870-12 5.666-12 1.509-11 3.609-11
 *H              2.2919-8 4.9376-8 1.0078-7 1.9597-7 3.6477-7 1.1268-6 3.0541-6 7.4222-6
 HBr             6.1013-9 6.1013-9 6.1013-9 6.1013-9 6.1012-9 6.1011-9 6.1010-9 6.1009-9
 HCL             5.5643-6 5.5643-6 5.5643-6 5.5642-6 5.5642-6 5.5641-6 5.5639-6 5.5637-6
 *HF             6.3919-7 6.3919-7 6.3919-7 6.3918-7 6.3917-7 6.3914-7 6.3906-7 6.3882-7
 HNO             3.131-19 1.240-18 4.443-18 1.454-17 4.383-17 3.203-16 1.824-15 8.439-15
 *H2             8.7305-1 8.7305-1 8.7306-1 8.7306-1 8.7306-1 8.7307-1 8.7308-1 8.7309-1
 H2F2            3.046-13 2.870-13 2.718-13 2.586-13 2.471-13 2.282-13 2.133-13 2.014-13
 H2O             6.7881-3 6.7881-3 6.7880-3 6.7880-3 6.7880-3 6.7879-3 6.7878-3 6.7878-3
 H2O2            2.530-19 8.605-19 2.685-18 7.756-18 2.090-17 1.263-16 6.193-16 2.551-15
 H2S             3.3104-4 3.3103-4 3.3103-4 3.3102-4 3.3101-4 3.3097-4 3.3089-4 3.3075-4
 *He             1.1886-1 1.1886-1 1.1886-1 1.1886-1 1.1886-1 1.1885-1 1.1885-1 1.1885-1
 *Mg             1.146-14 6.655-14 3.394-13 1.540-12 6.294-12 7.982-11 7.404-10 5.291 -9
 MgBr            6.747-19 2.740-18 1.003-17 3.339-17 1.022-16 7.676-16 4.481-15 2.121-14
 MgCL            9.766-16 3.904-15 1.408-14 4.625-14 1.398-13 1.026-12 5.875-12 2.733-11
 MgCL2           3.372-13 5.841-13 9.695-13 1.549-12 2.390-12 5.198-12 1.020-11 1.835-11
 MgF             8.276-17 3.349-16 1.221-15 4.057-15 1.239-14 9.274-14 5.403-13 2.554-12
 MgF2            4.337-16 8.215-16 1.482-15 2.560-15 4.252-15 1.058-14 2.340-14 4.688-14
 MgH             1.417-17 1.087-16 7.175-16 4.142-15 2.119-14 4.039-13 5.370-12 5.287-11
 MgN             1.798-22 2.038-21 1.929-20 1.551-19 1.076-18 3.519-17 7.386-16 1.072-14
 *MgO            4.228-21 4.028-20 3.263-19 2.285-18 1.403-17 3.745-16 6.742-15 8.733-14
 MgOH            2.171-15 1.139-14 5.291-14 2.203-13 8.314-13 9.142-12 7.491-11 4.803-10
 Mg(OH)2         1.582-12 4.780-12 1.333-11 3.458-11 8.408-11 4.188-10 1.716 -9 5.970 -9
 MgS             1.661-17 9.679-17 4.960-16 2.265-15 9.323-15 1.203-13 1.139-12 8.333-12
 *N              7.003-21 4.329-20 2.344-19 1.126-18 4.857-18 6.785-17 6.833-16 5.237-15
 *NH             8.872-17 3.624-16 1.335-15 4.477-15 1.380-14 1.048-13 6.153-13 2.917-12
 NH2             2.261-11 5.105-11 1.084-10 2.178-10 4.160-10 1.326 -9 3.622 -9 8.692 -9
 NH3             3.9253-4 3.8933-4 3.8518-4 3.7997-4 3.7365-4 3.5772-4 3.3807-4 3.1602-4
 NH2OH           3.613-16 8.440-16 1.853-15 3.848-15 7.591-15 2.578-14 7.482-14 1.905-13
 *NO             2.753-17 1.065-16 3.731-16 1.196-15 3.533-15 2.487-14 1.368-13 6.122-13
 *N2             3.5916-6 5.1922-6 7.2681-6 9.8709-6 1.3030-5 2.0989-5 3.0811-5 4.1829-5
 N2H2            2.216-17 6.482-17 1.748-16 4.377-16 1.024-15 4.669-15 1.725-14 5.344-14
 N2H4            1.773-15 3.434-15 6.311-15 1.105-14 1.852-14 4.606-14 9.956-14 1.913-13
 *O              5.851-20 3.282-19 1.629-18 7.249-18 2.922-17 3.665-16 3.421-15 2.496-14
 *OH             2.814-12 7.485-12 1.857-11 4.330-11 9.543-11 4.000-10 1.417 -9 4.365 -9
 *S              4.484-14 1.285-13 3.419-13 8.503-13 1.991-12 9.307-12 3.631-11 1.218-10
 SH              3.4254-9 6.0831-9 1.0369-8 1.7034-8 2.7071-8 6.2664-8 1.3135-7 2.5341-7
 SN              4.483-17 1.479-16 4.469-16 1.247-15 3.235-15 1.798-14 8.013-14 2.971-13
 SO              4.914-15 1.284-14 3.136-14 7.206-14 1.567-13 6.410-13 2.224-12 6.723-12
 SO2             3.793-16 8.283-16 1.713-15 3.374-15 6.359-15 2.011-14 5.566-14 1.378-13
 S2              5.292-13 9.843-13 1.752-12 2.996-12 4.944-12 1.225-11 2.728-11 5.553-11
 S2O             4.143-18 9.633-18 2.110-17 4.383-17 8.673-17 2.991-16 8.921-16 2.356-15
 *Si             1.687-23 3.230-22 4.999-21 6.396-20 6.898-19 5.128-17 2.294-15 6.734-14
 SiCL            4.175-21 3.825-20 2.986-19 2.020-18 1.201-17 3.036-16 5.239-15 6.589-14
 SiCL2           4.635-20 2.070-19 8.292-19 3.015-18 1.005-17 8.899-17 6.092-16 3.370-15
 SiF             1.378-22 1.320-21 1.074-20 7.556-20 4.662-19 1.260-17 2.308-16 3.061-15
 SiFCL           2.270-19 9.009-19 3.236-18 1.063-17 3.226-17 2.408-16 1.419-15 6.872-15
 SiF2            2.796-19 9.872-19 3.182-18 9.451-18 2.610-17 1.644-16 8.347-16 3.542-15
 SiH             1.243-20 1.779-19 2.101-18 2.090-17 1.782-16 8.648-15 2.655-13 5.573-12
 SiHCL           7.469-19 5.036-18 2.957-17 1.535-16 7.134-16 1.153-14 1.342-13 1.190-12
 SiHF            2.332-18 1.388-17 7.267-17 3.393-16 1.429-15 1.937-14 1.936-13 1.504-12
 SiH2            2.747-18 2.819-17 2.447-16 1.829-15 1.195-14 3.585-13 7.222-12 1.045-10
 SiH2CL2         2.852-17 7.457-17 1.820-16 4.180-16 9.086-16 3.721-15 1.296-14 3.952-14
 SiH2F2          6.996-15 1.255-14 2.160-14 3.585-14 5.757-14 1.363-13 2.932-13 5.825-13
 SiH3            5.509-17 4.456-16 3.102-15 1.887-14 1.018-13 2.160-12 3.204-11 3.532-10
 SiH3Br          4.672-18 1.650-17 5.323-17 1.584-16 4.385-16 2.782-15 1.425-14 6.119-14
 SiH3CL          8.110-15 2.789-14 8.777-14 2.553-13 6.920-13 4.225-12 2.093-11 8.724-11
 SiH3F           1.209-13 3.448-13 9.125-13 2.259-12 5.268-12 2.451-11 9.557-11 3.220-10
 SiH4            8.724-13 3.927-12 1.587-11 5.823-11 1.960-10 1.772 -9 1.241 -8 7.035 -8
 SiN             3.422-25 6.783-24 1.082-22 1.420-21 1.562-20 1.191-18 5.357-17 1.554-15
 SiO             7.214-14 4.891-13 2.888-12 1.507-11 7.037-11 1.148 -9 1.346 -8 1.202 -7
 SiO2            2.022-18 1.524-17 9.944-17 5.702-16 2.911-15 5.598-14 7.625-13 7.797-12
 SiS             7.232-15 4.641-14 2.602-13 1.293-12 5.765-12 8.634-11 9.380-10 7.809 -9
 SiS2            6.648-17 3.358-16 1.509-15 6.109-15 2.251-14 2.389-13 1.919-12 1.224-11
 MgSiO3(III)     4.3845-4 4.3845-4 4.3845-4 4.3845-4 4.3844-4 4.3843-4 4.3838-4 4.3803-4
 Mg2SiO4(cr)     1.3118-4 1.3118-4 1.3118-4 1.3118-4 1.3118-4 1.3118-4 1.3120-4 1.3136-4

  * THERMODYNAMIC PROPERTIES FITTED TO 20000.K

    PRODUCTS WHICH WERE CONSIDERED BUT WHOSE MOLE FRACTIONS
    WERE LESS THAN 1.000000E-15 FOR ALL ASSIGNED CONDITIONS

 BrCL            BrF             BrF3            BrF5            BrO            
 OBrO            BrOO            BrO3            Br2             BrBrO          
 BrOBr           CLF             CLF3            CLF5            CLO            
 CLO2            CL2             CL2O            *F              FO             
 FO2,FOO         FO2,OFO         F2              F2O             F2O2           
 FS2F            HNO2            HNO3            HOCL            HOF            
 HO2             HSO3F           H2SO4           H3F3            H4F4           
 H5F5            H6F6            H7F7            MgBr2           Mg2            
 Mg2F4           NF              NF2             NF3             NHF            
 NHF2            NH2F            NOCL            NOF             NOF3           
 NO2             NO2CL           NO2F            NO3             NO3F           
 N2F2            N2F4            NH2NO2          N2O             N2O3           
 N2O4            N2O5            N3              N3H             *O2            
 O3              SCL             SCL2            SF              SF2            
 SF3             SF4             SF5             SF6             SOF2           
 SO2CL2          SO2FCL          SO2F2           SO3             S2CL2          
 S2F2            S3              S4              S5              S6             
 S7              S8              SiBr            SiBr2           SiBr3          
 SiBr4           SiCL3           SiCL4           SiF3            SiF4           
 SiHBr3          SiHCL3          SiHF3           SiH2Br2         Si2            
 Si2F6           Si2N            Si3             Br2(cr)         Br2(L)         
 H2O(cr)         H2O(L)          H2SO4(L)        Mg(cr)          Mg(L)          
 MgBr2(cr)       MgBr2(L)        MgCL2(cr)       MgCL2(L)        MgF2(cr)       
 MgF2(L)         MgH2(b)         MgH2(L)         MgO(cr)         MgO(L)         
 Mg(OH)2(cr)     Mg(OH)2(L)      MgS(cr)         MgS(L)          MgSO4(II)      
 MgSO4(I)        MgSO4(L)        MgSiO3(I)       MgSiO3(II)      MgSiO3(L)      
 Mg2SiO4(L)      Mg3N2(cr)       NH4CL(II)       NH4CL(III)      NH4F(cr)       
 NH4F(L)         S(a)            S(b)            S(L)            SCL2(L)        
 S2CL2(L)        Si(cr)          Si(L)           SiO2(a-qz)      SiO2(b-qz)     
 SiO2(b-crt)     SiO2(L)         SiS(cr)         SiS(L)          SiS2(cr)       
 SiS2(L)         Si2N2O(cr)      Si3N4(cr)      





 PHASE CHANGE, REPLACE  MgSiO3(III)    WITH  MgSiO3(L)      

 POINT ITN      T            H           HE          N           S 
                    O           F           MG          SI          CL
                    BR
   1    4    1900.000      -5.916     -12.205     -14.495     -19.491
                 -28.096     -42.524     -20.650     -14.253     -30.552
                 -35.279
   2    4    2000.000      -5.997     -12.314     -14.485     -19.507
                 -27.391     -41.741     -19.417     -13.555     -30.347
                 -35.255

 SINGULAR MATRIX, ITERATION  1  VARIABLE 10(EQLBRM)
   3   18    1300.000      -5.286     -11.300     -15.315     -19.575
                 -34.783     -49.880     -30.504     -25.196     -32.580
                 -35.471
   4    2    1350.000      -5.339     -11.373     -15.184     -19.549
                 -33.987     -48.996     -29.322     -23.860     -32.320
                 -35.585
   5    2    1400.000      -5.390     -11.445     -15.067     -19.528
                 -33.249     -48.178     -28.232     -22.625     -32.081
                 -35.525
   6    3    1450.000      -5.441     -11.514     -14.964     -19.511
                 -32.565     -47.418     -27.225     -21.480     -31.861
                 -35.473
   7    3    1500.000      -5.490     -11.582     -14.874     -19.498
                 -31.928     -46.711     -26.291     -20.415     -31.658
                 -35.427
   8    4    1600.000      -5.584     -11.712     -14.728     -19.482
                 -30.780     -45.436     -24.619     -18.494     -31.297
                 -35.349




               THERMODYNAMIC EQUILIBRIUM PROPERTIES AT ASSIGNED

                           TEMPERATURE AND PRESSURE

 CASE = saturn         

             REACTANT                       MOLES         ENERGY      TEMP
                                                         KJ/KG-MOL      K
 NAME        H2                           1.0000000         0.000      0.000
 NAME        He                           0.1350000         0.000      0.000
 NAME        N2                           0.0002270         0.000      0.000
 NAME        H2S                          0.0003760         0.000      0.000
 NAME        O2                           0.0049000         0.000      0.000
 NAME        HF                           0.0000007         0.000      0.000
 NAME        Mg                           0.0007960         0.000      0.000
 NAME        Si                           0.0006470         0.000      0.000
 NAME        HCL                          0.0000063         0.000      0.000
 NAME        HBr                          0.0000000         0.000      0.000

 O/F=    0.00000  %FUEL=  0.000000  R,EQ.RATIO=*********  PHI,EQ.RATIO= 0.000000

 THERMODYNAMIC PROPERTIES

 P, BAR           2036.69  2036.69  2336.48  2336.48  2336.48  2336.48  2336.48  2336.48
 T, K             1900.00  2000.00  1300.00  1350.00  1400.00  1450.00  1500.00  1600.00
 RHO, KG/CU M    3.1456 1 2.9882 1 5.2747 1 5.0793 1 4.8979 1 4.7290 1 4.5713 1 4.2856 1
 H, KJ/KG         18558.8  19903.3  10796.5  11420.4  12048.4  12680.5  13316.6  14600.7
 U, KJ/KG         12084.1  13087.5  6366.93  6820.44  7278.04  7739.72  8205.43  9148.78
 G, KJ/KG        -78695.2 -83848.6 -48771.2 -51074.1 -53400.2 -55748.8 -58119.3 -62923.5
 S, KJ/(KG)(K)    51.1864  51.8759  45.8213  46.2923  46.7490  47.1926  47.6239  48.4526

 M, (1/n)           2.440    2.440    2.440    2.440    2.440    2.440    2.440    2.440
 MW, MOL WT         2.438    2.438    2.439    2.439    2.439    2.439    2.439    2.439
 (dLV/dLP)t      -1.00013 -1.00014 -1.00001 -1.00002 -1.00002 -1.00003 -1.00004 -1.00006
 (dLV/dLT)p        1.0006   1.0007   1.0001   1.0001   1.0001   1.0001   1.0002   1.0002
 Cp, KJ/(KG)(K)   13.3716  13.5171  12.4370  12.5188  12.6006  12.6819  12.7624  12.9202
 GAMMAs            1.3423   1.3375   1.3774   1.3740   1.3707   1.3675   1.3643   1.3583
 SON VEL,M/SEC     2948.1   3019.3   2470.1   2514.1   2557.1   2599.3   2640.7   2721.3

 MOLE FRACTIONS

 *Br             3.631-12 5.990-12 4.374-14 6.182-14 1.008-13 1.592-13 2.439-13 5.301-13
 *CL             7.882-11 1.593-10 1.149-13 2.444-13 4.930-13 9.481-13 1.746-12 5.290-12
 *F              3.069-15 9.658-15 7.597-20 2.604-19 8.183-19 2.378-18 6.440-18 3.925-17
 *H              1.6451-5 3.3715-5 2.1398-8 4.6099-8 9.4093-8 1.8296-7 3.4056-7 1.0520-6
 HBr             6.0971-9 6.0945-9 7.3068-9 6.1021-9 6.1013-9 6.1013-9 6.1013-9 6.1012-9
 HCL             5.5632-6 5.5622-6 5.5643-6 5.5643-6 5.5643-6 5.5643-6 5.5642-6 5.5641-6
 *HF             6.3836-7 6.3781-7 6.3922-7 6.3919-7 6.3919-7 6.3919-7 6.3918-7 6.3915-7
 HNO             3.280-14 1.102-13 2.741-19 1.088-18 3.906-18 1.282-17 3.878-17 2.859-16
 HOCL            2.523-15 5.857-15 1.088-18 2.693-18 6.252-18 1.370-17 2.852-17 1.078-16
 *H2             8.7310-1 8.7309-1 8.7305-1 8.7305-1 8.7305-1 8.7306-1 8.7306-1 8.7307-1
 H2F2            1.915-13 1.834-13 3.495-13 3.292-13 3.118-13 2.967-13 2.835-13 2.618-13
 H2O             6.7886-3 6.7912-3 6.7881-3 6.7881-3 6.7881-3 6.7880-3 6.7880-3 6.7879-3
 H2O2            9.076-15 2.850-14 2.530-19 8.605-19 2.685-18 7.756-18 2.090-17 1.263-16
 H2S             3.3051-4 3.3009-4 3.3104-4 3.3103-4 3.3103-4 3.3102-4 3.3101-4 3.3097-4
 *He             1.1885-1 1.1884-1 1.1886-1 1.1886-1 1.1886-1 1.1886-1 1.1886-1 1.1885-1
 *Mg             3.457 -8 2.105 -7 9.989-15 5.801-14 2.958-13 1.343-12 5.487-12 6.958-11
 MgBr            9.575-14 4.179-13 7.543-19 2.559-18 9.360-18 3.118-17 9.544-17 7.166-16
 MgCL            1.216-10 5.236-10 9.118-16 3.645-15 1.314-14 4.318-14 1.305-13 9.583-13
 MgCL2           3.497-11 7.031-11 3.372-13 5.841-13 9.695-13 1.549-12 2.390-12 5.198-12
 MgF             1.153-11 5.031-11 7.728-17 3.127-16 1.140-15 3.788-15 1.157-14 8.659-14
 MgF2            9.837-14 2.159-13 4.338-16 8.215-16 1.482-15 2.560-15 4.252-15 1.058-14
 MgH             4.603-10 3.630 -9 1.323-17 1.015-16 6.699-16 3.867-15 1.978-14 3.771-13
 MgN             1.299-13 1.361-12 1.470-22 1.669-21 1.583-20 1.277-19 8.893-19 2.932-17
 *MgO            9.755-13 9.657-12 3.686-21 3.511-20 2.844-19 1.992-18 1.223-17 3.264-16
 MgOH            2.852 -9 1.596 -8 2.027-15 1.064-14 4.940-14 2.057-13 7.762-13 8.536-12
 Mg(OH)2         2.061 -8 7.103 -8 1.582-12 4.780-12 1.333-11 3.458-11 8.408-11 4.188-10
 MgS             5.581-11 3.486-10 1.448-17 8.437-17 4.323-16 1.974-15 8.127-15 1.049-13
 Mg2             4.115-16 1.339-14 1.039-28 3.181-27 7.536-26 1.419-24 2.172-23 2.963-21
 *N              3.192-14 1.605-13 5.723-21 3.545-20 1.924-19 9.272-19 4.013-18 5.654-17
 *NH             1.156-11 3.938-11 7.767-17 3.178-16 1.173-15 3.948-15 1.221-14 9.351-14
 NH2             1.873 -8 3.692 -8 2.120-11 4.796-11 1.021-10 2.057-10 3.942-10 1.268 -9
 NH3             2.9307-4 2.7049-4 3.9421-4 3.9173-4 3.8848-4 3.8436-4 3.7930-4 3.6626-4
 NH2OH           4.345-13 9.050-13 3.628-16 8.492-16 1.869-15 3.893-15 7.706-15 2.639-14
 *NO             2.306-12 7.512-12 2.250-17 8.719-17 3.063-16 9.843-16 2.919-15 2.072-14
 *N2             5.3292-5 6.4566-5 2.7525-6 3.9940-6 5.6178-6 7.6749-6 1.0203-5 1.6719-5
 N2H2            1.431-13 3.397-13 1.948-17 5.720-17 1.550-16 3.904-16 9.196-16 4.266-15
 N2H4            3.335-13 5.375-13 1.789-15 3.476-15 6.420-15 1.131-14 1.908-14 4.829-14
 *O              1.480-13 7.355-13 5.100-20 2.861-19 1.420-18 6.319-18 2.547-17 3.195-16
 *OH             1.195 -8 2.958 -8 2.628-12 6.989-12 1.734-11 4.043-11 8.910-11 3.734-10
 *O2             5.020-16 2.465-15 1.942-22 1.074-21 5.264-21 2.314-20 9.228-20 1.135-18
 *S              3.595-10 9.522-10 3.909-14 1.121-13 2.980-13 7.412-13 1.735-12 8.113-12
 SCL             1.139-15 2.752-15 3.049-19 7.934-19 1.929-18 4.411-18 9.548-18 3.871-17
 SH              4.5587-7 7.7246-7 3.1981-9 5.6795-9 9.6806-9 1.5904-8 2.5275-8 5.8507-8
 SN              9.438-13 2.634-12 3.664-17 1.211-16 3.668-16 1.026-15 2.673-15 1.498-14
 SO              1.809-11 4.409-11 4.284-15 1.120-14 2.734-14 6.281-14 1.366-13 5.588-13
 SO2             3.106-13 6.460-13 3.307-16 7.221-16 1.493-15 2.941-15 5.544-15 1.753-14
 S2              1.048-10 1.852-10 4.613-13 8.580-13 1.527-12 2.611-12 4.309-12 1.068-11
 S2O             5.615-15 1.225-14 3.612-18 8.397-18 1.840-17 3.820-17 7.560-17 2.607-16
 *Si             1.070-12 9.977-12 1.471-23 2.815-22 4.357-21 5.575-20 6.013-19 4.470-17
 SiBr            2.108-15 9.245-15 3.850-23 2.729-22 1.985-21 1.257-20 7.029-20 1.589-18
 SiCL            4.900-13 2.306-12 3.898-21 3.571-20 2.788-19 1.886-18 1.122-17 2.834-16
 SiCL2           1.202-14 2.923-14 4.635-20 2.070-19 8.292-19 3.015-18 1.005-17 8.899-17
 SiF             2.388-14 1.174-13 1.286-22 1.232-21 1.003-20 7.054-20 4.353-19 1.176-17
 SiFCL           2.177-14 4.758-14 2.270-19 9.009-19 3.236-18 1.063-17 3.226-17 2.408-16
 SiF2            9.974-15 1.961-14 2.797-19 9.872-19 3.182-18 9.451-18 2.610-17 1.644-16
 SiH             6.557-11 4.666-10 1.161-20 1.661-19 1.962-18 1.952-17 1.664-16 8.074-15
 SiHCL           6.477-12 2.303-11 7.469-19 5.035-18 2.957-17 1.535-16 7.134-16 1.153-14
 SiHF            7.285-12 2.339-11 2.332-18 1.388-17 7.267-17 3.393-16 1.429-15 1.937-14
 SiH2            8.836-10 4.682 -9 2.747-18 2.819-17 2.447-16 1.829-15 1.195-14 3.585-13
 SiH2CL2         8.306-14 1.259-13 3.272-17 8.554-17 2.088-16 4.795-16 1.042-15 4.269-15
 SiH2F2          8.350-13 8.972-13 8.027-15 1.440-14 2.478-14 4.113-14 6.604-14 1.564-13
 SiH3            2.341 -9 9.957 -9 5.901-17 4.773-16 3.322-15 2.022-14 1.090-13 2.313-12
 SiH3Br          1.746-13 3.483-13 6.419-18 1.893-17 6.106-17 1.817-16 5.030-16 3.191-15
 SiH3CL          2.425-10 4.727-10 9.303-15 3.199-14 1.007-13 2.929-13 7.938-13 4.847-12
 SiH3F           7.404-10 1.217 -9 1.387-13 3.956-13 1.047-12 2.592-12 6.043-12 2.811-11
 SiH4            2.575 -7 6.428 -7 1.001-12 4.504-12 1.820-11 6.680-11 2.248-10 2.033 -9
 SiN             2.407-14 2.167-13 2.797-25 5.554-24 8.881-23 1.169-21 1.291-20 9.923-19
 SiO             6.584 -7 2.354 -6 6.288-14 4.263-13 2.517-12 1.314-11 6.134-11 1.000 -9
 SiO2            4.833-11 1.937-10 1.763-18 1.329-17 8.668-17 4.970-16 2.537-15 4.880-14
 SiS             4.010 -8 1.350 -7 6.304-15 4.045-14 2.268-13 1.127-12 5.025-12 7.526-11
 SiS2            4.952-11 1.347-10 5.795-17 2.927-16 1.316-15 5.325-15 1.962-14 2.083-13
 MgSiO3(III)     0.0000 0 0.0000 0 4.3845-4 4.3845-4 4.3845-4 4.3845-4 4.3845-4 4.3844-4
 MgSiO3(L)       4.3654-4 4.3240-4 0.0000 0 0.0000 0 0.0000 0 0.0000 0 0.0000 0 0.0000 0
 Mg2SiO4(cr)     1.3207-4 1.3401-4 1.3118-4 1.3118-4 1.3118-4 1.3118-4 1.3118-4 1.3118-4

  * THERMODYNAMIC PROPERTIES FITTED TO 20000.K

    PRODUCTS WHICH WERE CONSIDERED BUT WHOSE MOLE FRACTIONS
    WERE LESS THAN 1.000000E-15 FOR ALL ASSIGNED CONDITIONS

 BrCL            BrF             BrF3            BrF5            BrO            
 OBrO            BrOO            BrO3            Br2             BrBrO          
 BrOBr           CLF             CLF3            CLF5            CLO            
 CLO2            CL2             CL2O            FO              FO2,FOO        
 FO2,OFO         F2              F2O             F2O2            FS2F           
 HNO2            HNO3            HOF             HO2             HSO3F          
 H2SO4           H3F3            H4F4            H5F5            H6F6           
 H7F7            MgBr2           Mg2F4           NF              NF2            
 NF3             NHF             NHF2            NH2F            NOCL           
 NOF             NOF3            NO2             NO2CL           NO2F           
 NO3             NO3F            N2F2            N2F4            NH2NO2         
 N2O             N2O3            N2O4            N2O5            N3             
 N3H             O3              SCL2            SF              SF2            
 SF3             SF4             SF5             SF6             SOF2           
 SO2CL2          SO2FCL          SO2F2           SO3             S2CL2          
 S2F2            S3              S4              S5              S6             
 S7              S8              SiBr2           SiBr3           SiBr4          
 SiCL3           SiCL4           SiF3            SiF4            SiHBr3         
 SiHCL3          SiHF3           SiH2Br2         Si2             Si2F6          
 Si2N            Si3             Br2(cr)         Br2(L)          H2O(cr)        
 H2O(L)          H2SO4(L)        Mg(cr)          Mg(L)           MgBr2(cr)      
 MgBr2(L)        MgCL2(cr)       MgCL2(L)        MgF2(cr)        MgF2(L)        
 MgH2(b)         MgH2(L)         MgO(cr)         MgO(L)          Mg(OH)2(cr)    
 Mg(OH)2(L)      MgS(cr)         MgS(L)          MgSO4(II)       MgSO4(I)       
 MgSO4(L)        MgSiO3(I)       MgSiO3(II)      Mg2SiO4(L)      Mg3N2(cr)      
 NH4CL(II)       NH4CL(III)      NH4F(cr)        NH4F(L)         S(a)           
 S(b)            S(L)            SCL2(L)         S2CL2(L)        Si(cr)         
 Si(L)           SiO2(a-qz)      SiO2(b-qz)      SiO2(b-crt)     SiO2(L)        
 SiS(cr)         SiS(L)          SiS2(cr)        SiS2(L)         Si2N2O(cr)     
 Si3N4(cr)      






 POINT ITN      T            H           HE          N           S 
                    O           F           MG          SI          CL
                    BR
   1    4    1700.000      -5.675     -11.836     -14.622     -19.476
                 -29.773     -44.319     -23.166     -16.810     -30.986
                 -35.290
   2    4    1800.000      -5.763     -11.955     -14.551     -19.480
                 -28.885     -43.332     -21.896     -15.320     -30.717
                 -35.244
 PHASE CHANGE, REPLACE  MgSiO3(III)    WITH  MgSiO3(L)      
   3    4    1900.000      -5.847     -12.068     -14.509     -19.490
                 -28.096     -42.456     -20.650     -14.253     -30.483
                 -35.210
   4    4    2000.000      -5.928     -12.177     -14.490     -19.507
                 -27.391     -41.672     -19.417     -13.555     -30.279
                 -35.186

 SINGULAR MATRIX, ITERATION  1  VARIABLE 10(EQLBRM)
   5   18    1300.000      -5.220     -11.167     -15.378     -19.575
                 -34.783     -49.813     -30.504     -25.196     -32.514
                 -35.406
   6    2    1350.000      -5.272     -11.240     -15.246     -19.549
                 -33.987     -48.929     -29.322     -23.860     -32.253
                 -35.518
   7    2    1400.000      -5.324     -11.311     -15.128     -19.528
                 -33.249     -48.111     -28.232     -22.625     -32.014
                 -35.459
   8    2    1450.000      -5.374     -11.381     -15.022     -19.511
                 -32.565     -47.351     -27.225     -21.480     -31.794
                 -35.406




               THERMODYNAMIC EQUILIBRIUM PROPERTIES AT ASSIGNED

                           TEMPERATURE AND PRESSURE

 CASE = saturn         

             REACTANT                       MOLES         ENERGY      TEMP
                                                         KJ/KG-MOL      K
 NAME        H2                           1.0000000         0.000      0.000
 NAME        He                           0.1350000         0.000      0.000
 NAME        N2                           0.0002270         0.000      0.000
 NAME        H2S                          0.0003760         0.000      0.000
 NAME        O2                           0.0049000         0.000      0.000
 NAME        HF                           0.0000007         0.000      0.000
 NAME        Mg                           0.0007960         0.000      0.000
 NAME        Si                           0.0006470         0.000      0.000
 NAME        HCL                          0.0000063         0.000      0.000
 NAME        HBr                          0.0000000         0.000      0.000

 O/F=    0.00000  %FUEL=  0.000000  R,EQ.RATIO=*********  PHI,EQ.RATIO= 0.000000

 THERMODYNAMIC PROPERTIES

 P, BAR           2336.48  2336.48  2336.48  2336.48  2669.30  2669.30  2669.30  2669.30
 T, K             1700.00  1800.00  1900.00  2000.00  1300.00  1350.00  1400.00  1450.00
 RHO, KG/CU M    4.0334 1 3.8092 1 3.6087 1 3.4281 1 6.0261 1 5.8029 1 5.5956 1 5.4026 1
 H, KJ/KG         15900.5  17215.2  18558.4  19902.6  10796.5  11420.4  12048.3  12680.4
 U, KJ/KG         10107.6  11081.5  12083.7  13087.0  6366.90  6820.41  7277.99  7739.65
 G, KJ/KG        -67808.4 -72770.4 -77806.1 -82912.6 -48181.3 -50461.6 -52765.0 -55090.9
 S, KJ/(KG)(K)    49.2405  49.9920  50.7181  51.4076  45.3676  45.8385  46.2952  46.7388

 M, (1/n)           2.440    2.440    2.440    2.440    2.440    2.440    2.440    2.440
 MW, MOL WT         2.439    2.439    2.439    2.438    2.439    2.439    2.439    2.439
 (dLV/dLP)t      -1.00008 -1.00010 -1.00012 -1.00014 -1.00001 -1.00001 -1.00002 -1.00002
 (dLV/dLT)p        1.0003   1.0004   1.0005   1.0007   1.0000   1.0001   1.0001   1.0001
 Cp, KJ/(KG)(K)   13.0731  13.2215  13.3703  13.5148  12.4367  12.5185  12.6002  12.6814
 GAMMAs            1.3527   1.3474   1.3423   1.3375   1.3774   1.3740   1.3707   1.3675
 SON VEL,M/SEC     2799.3   2874.9   2948.1   3019.3   2470.1   2514.0   2557.1   2599.3

 MOLE FRACTIONS

 *Br             1.055-12 1.951-12 3.392-12 5.593-12 4.087-14 5.783-14 9.433-14 1.489-13
 *CL             1.409-11 3.369-11 7.359-11 1.488-10 1.075-13 2.287-13 4.613-13 8.870-13
 *F              1.938-16 8.026-16 2.865-15 9.014-15 7.107-20 2.437-19 7.656-19 2.225-18
 *H              2.8514-6 6.9297-6 1.5360-5 3.1478-5 2.0019-8 4.3130-8 8.8032-8 1.7118-7
 HBr             6.1011-9 6.1010-9 6.1008-9 6.0950-9 7.2966-9 6.1021-9 6.1014-9 6.1013-9
 HCL             5.5640-6 5.5637-6 5.5633-6 5.5623-6 5.5643-6 5.5643-6 5.5643-6 5.5643-6
 *HF             6.3905-7 6.3878-7 6.3827-7 6.3765-7 6.3922-7 6.3919-7 6.3919-7 6.3919-7
 HNO             1.645-15 7.688-15 3.019-14 1.024-13 2.407-19 9.565-19 3.441-18 1.132-17
 HOCL            3.486-16 9.906-16 2.523-15 5.857-15 1.088-18 2.693-18 6.252-18 1.370-17
 *H2             8.7308-1 8.7308-1 8.7309-1 8.7308-1 8.7305-1 8.7305-1 8.7305-1 8.7305-1
 H2F2            2.447-13 2.310-13 2.197-13 2.103-13 3.993-13 3.761-13 3.562-13 3.389-13
 H2O             6.7878-3 6.7879-3 6.7887-3 6.7912-3 6.7881-3 6.7881-3 6.7881-3 6.7881-3
 H2O2            6.193-16 2.552-15 9.077-15 2.850-14 2.530-19 8.605-19 2.685-18 7.757-18
 H2S             3.3090-4 3.3078-4 3.3055-4 3.3016-4 3.3104-4 3.3104-4 3.3103-4 3.3102-4
 *He             1.1885-1 1.1885-1 1.1885-1 1.1884-1 1.1886-1 1.1886-1 1.1886-1 1.1886-1
 *Mg             6.454-10 4.612 -9 3.014 -8 1.835 -7 8.743-15 5.078-14 2.589-13 1.175-12
 MgBr            4.183-15 1.980-14 8.945-14 3.902-13 7.048-19 2.394-18 8.757-18 2.917-17
 MgCL            5.486-12 2.552-11 1.135-10 4.889-10 8.530-16 3.410-15 1.229-14 4.040-14
 MgCL2           1.020-11 1.835-11 3.497-11 7.031-11 3.372-13 5.841-13 9.695-13 1.549-12
 MgF             5.044-13 2.384-12 1.076-11 4.696-11 7.230-17 2.925-16 1.067-15 3.544-15
 MgF2            2.339-14 4.687-14 9.834-14 2.158-13 4.338-16 8.215-16 1.482-15 2.560-15
 MgH             5.013-12 4.936-11 4.298-10 3.389 -9 1.238-17 9.494-17 6.268-16 3.618-15
 MgN             6.217-16 9.115-15 1.116-13 1.180-12 1.207-22 1.373-21 1.305-20 1.055-19
 *MgO            5.877-15 7.612-14 8.503-13 8.418-12 3.226-21 3.074-20 2.490-19 1.743-18
 MgOH            6.994-11 4.485-10 2.663 -9 1.490 -8 1.896-15 9.950-15 4.622-14 1.925-13
 Mg(OH)2         1.716 -9 5.970 -9 2.061 -8 7.103 -8 1.582-12 4.780-12 1.333-11 3.458-11
 MgS             9.931-13 7.264-12 4.866-11 3.040-10 1.267-17 7.385-17 3.784-16 1.728-15
 Mg2             2.183-19 9.640-18 3.587-16 1.167-14 9.097-29 2.785-27 6.596-26 1.242-24
 *N              5.751-16 4.454-15 2.743-14 1.391-13 4.702-21 2.916-20 1.586-19 7.660-19
 *NH             5.547-13 2.657-12 1.063-11 3.658-11 6.820-17 2.795-16 1.034-15 3.486-15
 NH2             3.497 -9 8.481 -9 1.847 -8 3.673 -8 1.990-11 4.507-11 9.613-11 1.941-10
 NH3             3.4962-4 3.3025-4 3.0940-4 2.8822-4 3.9547-4 3.9354-4 3.9099-4 3.8774-4
 NH2OH           7.737-14 1.990-13 4.587-13 9.643-13 3.640-16 8.532-16 1.882-15 3.927-15
 *NO             1.151-13 5.207-13 1.981-12 6.514-12 1.848-17 7.174-17 2.524-16 8.132-16
 *N2             2.5039-5 3.4713-5 4.5132-5 5.5705-5 2.1224-6 3.0885-6 4.3602-6 5.9844-6
 N2H2            1.608-14 5.088-14 1.390-13 3.362-13 1.716-17 5.053-17 1.374-16 3.478-16
 N2H4            1.065-13 2.089-13 3.717-13 6.103-13 1.800-15 3.509-15 6.503-15 1.151-14
 *O              2.982-15 2.176-14 1.290-13 6.411-13 4.464-20 2.504-19 1.243-18 5.531-18
 *OH             1.323 -9 4.075 -9 1.115 -8 2.762 -8 2.458-12 6.538-12 1.622-11 3.782-11
 *O2             1.041-17 7.482-17 4.376-16 2.149-15 1.700-22 9.401-22 4.607-21 2.026-20
 *S              3.165-11 1.062-10 3.134-10 8.302-10 3.422-14 9.808-14 2.609-13 6.488-13
 SCL             1.331-16 3.988-16 1.064-15 2.570-15 2.852-19 7.423-19 1.805-18 4.127-18
 SH              1.2264-7 2.3662-7 4.2567-7 7.2137-7 2.9921-9 5.3136-9 9.0570-9 1.4879-8
 SN              6.745-14 2.527-13 8.110-13 2.285-12 3.010-17 9.964-17 3.023-16 8.479-16
 SO              1.939-12 5.861-12 1.577-11 3.844-11 3.750-15 9.800-15 2.393-14 5.498-14
 SO2             4.853-14 1.202-13 2.708-13 5.632-13 2.894-16 6.320-16 1.307-15 2.575-15
 S2              2.378-11 4.841-11 9.134-11 1.615-10 4.038-13 7.510-13 1.337-12 2.286-12
 S2O             7.777-16 2.054-15 4.896-15 1.068-14 3.161-18 7.350-18 1.610-17 3.344-17
 *Si             2.000-15 5.870-14 9.325-13 8.697-12 1.287-23 2.464-22 3.814-21 4.880-20
 SiBr            2.485-17 2.863-16 1.969-15 8.632-15 3.597-23 2.554-22 1.857-21 1.176-20
 SiCL            4.892-15 6.151-14 4.575-13 2.153-12 3.647-21 3.341-20 2.608-19 1.764-18
 SiCL2           6.092-16 3.370-15 1.202-14 2.923-14 4.635-20 2.070-19 8.292-19 3.015-18
 SiF             2.155-16 2.858-15 2.229-14 1.096-13 1.203-22 1.153-21 9.383-21 6.600-20
 SiFCL           1.419-15 6.871-15 2.177-14 4.757-14 2.270-19 9.009-19 3.236-18 1.063-17
 SiF2            8.347-16 3.542-15 9.970-15 1.960-14 2.797-19 9.872-19 3.182-18 9.451-18
 SiH             2.479-13 5.203-12 6.122-11 4.356-10 1.086-20 1.554-19 1.836-18 1.826-17
 SiHCL           1.342-13 1.190-12 6.477-12 2.303-11 7.469-19 5.035-18 2.957-17 1.535-16
 SiHF            1.936-13 1.503-12 7.284-12 2.338-11 2.332-18 1.388-17 7.267-17 3.393-16
 SiH2            7.221-12 1.045-10 8.836-10 4.682 -9 2.747-18 2.819-17 2.447-16 1.829-15
 SiH2CL2         1.487-14 4.534-14 9.529-14 1.444-13 3.738-17 9.773-17 2.386-16 5.478-16
 SiH2F2          3.363-13 6.681-13 9.576-13 1.029-12 9.170-15 1.645-14 2.831-14 4.698-14
 SiH3            3.432-11 3.783-10 2.507 -9 1.066 -8 6.307-17 5.102-16 3.551-15 2.161-14
 SiH3Br          1.635-14 7.020-14 2.004-13 3.996-13 7.323-18 2.163-17 6.976-17 2.076-16
 SiH3CL          2.401-11 1.001-10 2.782-10 5.423-10 1.063-14 3.655-14 1.150-13 3.346-13
 SiH3F           1.096-10 3.694-10 8.492-10 1.395 -9 1.584-13 4.519-13 1.196-12 2.961-12
 SiH4            1.424 -8 8.070 -8 2.954 -7 7.374 -7 1.143-12 5.146-12 2.079-11 7.631-11
 SiN             4.508-17 1.322-15 2.068-14 1.879-13 2.298-25 4.570-24 7.320-23 9.656-22
 SiO             1.174 -8 1.048 -7 5.739 -7 2.052 -6 5.504-14 3.732-13 2.203-12 1.150-11
 SiO2            6.647-13 6.797-12 4.213-11 1.688-10 1.543-18 1.163-17 7.588-17 4.350-16
 SiS             8.177-10 6.807 -9 3.496 -8 1.177 -7 5.518-15 3.541-14 1.985-13 9.864-13
 SiS2            1.673-12 1.067-11 4.318-11 1.175-10 5.072-17 2.562-16 1.152-15 4.661-15
 MgSiO3(III)     4.3838-4 4.3805-4 0.0000 0 0.0000 0 4.3845-4 4.3845-4 4.3845-4 4.3845-4
 MgSiO3(L)       0.0000 0 0.0000 0 4.3665-4 4.3282-4 0.0000 0 0.0000 0 0.0000 0 0.0000 0
 Mg2SiO4(cr)     1.3120-4 1.3136-4 1.3203-4 1.3382-4 1.3118-4 1.3118-4 1.3118-4 1.3118-4

  * THERMODYNAMIC PROPERTIES FITTED TO 20000.K

    PRODUCTS WHICH WERE CONSIDERED BUT WHOSE MOLE FRACTIONS
    WERE LESS THAN 1.000000E-15 FOR ALL ASSIGNED CONDITIONS

 BrCL            BrF             BrF3            BrF5            BrO            
 OBrO            BrOO            BrO3            Br2             BrBrO          
 BrOBr           CLF             CLF3            CLF5            CLO            
 CLO2            CL2             CL2O            FO              FO2,FOO        
 FO2,OFO         F2              F2O             F2O2            FS2F           
 HNO2            HNO3            HOF             HO2             HSO3F          
 H2SO4           H3F3            H4F4            H5F5            H6F6           
 H7F7            MgBr2           Mg2F4           NF              NF2            
 NF3             NHF             NHF2            NH2F            NOCL           
 NOF             NOF3            NO2             NO2CL           NO2F           
 NO3             NO3F            N2F2            N2F4            NH2NO2         
 N2O             N2O3            N2O4            N2O5            N3             
 N3H             O3              SCL2            SF              SF2            
 SF3             SF4             SF5             SF6             SOF2           
 SO2CL2          SO2FCL          SO2F2           SO3             S2CL2          
 S2F2            S3              S4              S5              S6             
 S7              S8              SiBr2           SiBr3           SiBr4          
 SiCL3           SiCL4           SiF3            SiF4            SiHBr3         
 SiHCL3          SiHF3           SiH2Br2         Si2             Si2F6          
 Si2N            Si3             Br2(cr)         Br2(L)          H2O(cr)        
 H2O(L)          H2SO4(L)        Mg(cr)          Mg(L)           MgBr2(cr)      
 MgBr2(L)        MgCL2(cr)       MgCL2(L)        MgF2(cr)        MgF2(L)        
 MgH2(b)         MgH2(L)         MgO(cr)         MgO(L)          Mg(OH)2(cr)    
 Mg(OH)2(L)      MgS(cr)         MgS(L)          MgSO4(II)       MgSO4(I)       
 MgSO4(L)        MgSiO3(I)       MgSiO3(II)      Mg2SiO4(L)      Mg3N2(cr)      
 NH4CL(II)       NH4CL(III)      NH4F(cr)        NH4F(L)         S(a)           
 S(b)            S(L)            SCL2(L)         S2CL2(L)        Si(cr)         
 Si(L)           SiO2(a-qz)      SiO2(b-qz)      SiO2(b-crt)     SiO2(L)        
 SiS(cr)         SiS(L)          SiS2(cr)        SiS2(L)         Si2N2O(cr)     
 Si3N4(cr)      






 POINT ITN      T            H           HE          N           S 
                    O           F           MG          SI          CL
                    BR
   1    3    1500.000      -5.423     -11.448     -14.929     -19.498
                 -31.928     -46.645     -26.291     -20.415     -31.591
                 -35.360
   2    4    1600.000      -5.518     -11.579     -14.776     -19.482
                 -30.780     -45.370     -24.619     -18.494     -31.230
                 -35.283
   3    4    1700.000      -5.609     -11.703     -14.662     -19.476
                 -29.773     -44.252     -23.166     -16.810     -30.920
                 -35.223
   4    4    1800.000      -5.696     -11.821     -14.582     -19.480
                 -28.885     -43.266     -21.896     -15.320     -30.651
                 -35.177
 PHASE CHANGE, REPLACE  MgSiO3(III)    WITH  MgSiO3(L)      
   5    4    1900.000      -5.780     -11.935     -14.530     -19.490
                 -28.096     -42.389     -20.650     -14.253     -30.417
                 -35.143
   6    4    2000.000      -5.861     -12.043     -14.502     -19.507
                 -27.391     -41.606     -19.417     -13.556     -30.212
                 -35.119

 SINGULAR MATRIX, ITERATION  1  VARIABLE 10(EQLBRM)
   7   18    1300.000      -5.155     -11.038     -15.440     -19.575
                 -34.783     -49.749     -30.504     -25.196     -32.449
                 -35.343
   8    2    1350.000      -5.208     -11.111     -15.307     -19.549
                 -33.987     -48.865     -29.322     -23.860     -32.189
                 -35.453




               THERMODYNAMIC EQUILIBRIUM PROPERTIES AT ASSIGNED

                           TEMPERATURE AND PRESSURE

 CASE = saturn         

             REACTANT                       MOLES         ENERGY      TEMP
                                                         KJ/KG-MOL      K
 NAME        H2                           1.0000000         0.000      0.000
 NAME        He                           0.1350000         0.000      0.000
 NAME        N2                           0.0002270         0.000      0.000
 NAME        H2S                          0.0003760         0.000      0.000
 NAME        O2                           0.0049000         0.000      0.000
 NAME        HF                           0.0000007         0.000      0.000
 NAME        Mg                           0.0007960         0.000      0.000
 NAME        Si                           0.0006470         0.000      0.000
 NAME        HCL                          0.0000063         0.000      0.000
 NAME        HBr                          0.0000000         0.000      0.000

 O/F=    0.00000  %FUEL=  0.000000  R,EQ.RATIO=*********  PHI,EQ.RATIO= 0.000000

 THERMODYNAMIC PROPERTIES

 P, BAR           2669.30  2669.30  2669.30  2669.30  2669.30  2669.30  3037.79  3037.79
 T, K             1500.00  1600.00  1700.00  1800.00  1900.00  2000.00  1300.00  1350.00
 RHO, KG/CU M    5.2225 1 4.8961 1 4.6080 1 4.3519 1 4.1228 1 3.9165 1 6.8580 1 6.6039 1
 H, KJ/KG         13316.5  14600.6  15900.2  17214.9  18557.9  19902.0  10796.5  11420.3
 U, KJ/KG         8205.35  9148.66  10107.5  11081.3  12083.4  13086.5  6366.88  6820.38
 G, KJ/KG        -57438.6 -62197.4 -67037.0 -71953.5 -76943.9 -82005.0 -47608.5 -49866.7
 S, KJ/(KG)(K)    47.1701  47.9988  48.7866  49.5380  50.2641  50.9535  44.9269  45.3978

 M, (1/n)           2.440    2.440    2.440    2.440    2.440    2.440    2.440    2.440
 MW, MOL WT         2.439    2.439    2.439    2.439    2.439    2.439    2.439    2.439
 (dLV/dLP)t      -1.00003 -1.00005 -1.00007 -1.00009 -1.00011 -1.00013 -1.00001 -1.00001
 (dLV/dLT)p        1.0001   1.0002   1.0003   1.0004   1.0005   1.0006   1.0000   1.0000
 Cp, KJ/(KG)(K)   12.7619  12.9196  13.0724  13.2206  13.3690  13.5127  12.4366  12.5183
 GAMMAs            1.3643   1.3583   1.3527   1.3474   1.3423   1.3376   1.3774   1.3740
 SON VEL,M/SEC     2640.7   2721.3   2799.3   2874.8   2948.0   3019.3   2470.1   2514.0

 MOLE FRACTIONS

 *Br             2.282-13 4.959-13 9.869-13 1.825-12 3.174-12 5.233-12 3.825-14 5.421-14
 *CL             1.634-12 4.949-12 1.318-11 3.152-11 6.885-11 1.392-10 1.008-13 2.144-13
 *F              6.025-18 3.673-17 1.813-16 7.508-16 2.680-15 8.431-15 6.662-20 2.284-19
 *H              3.1862-7 9.8423-7 2.6677-6 6.4832-6 1.4370-5 2.9450-5 1.8766-8 4.0429-8
 HBr             6.1013-9 6.1012-9 6.1012-9 6.1010-9 6.1009-9 6.0955-9 7.2865-9 6.1020-9
 HCL             5.5643-6 5.5642-6 5.5640-6 5.5638-6 5.5633-6 5.5624-6 5.5643-6 5.5643-6
 *HF             6.3918-7 6.3915-7 6.3904-7 6.3873-7 6.3816-7 6.3746-7 6.3922-7 6.3919-7
 HNO             3.434-17 2.549-16 1.479-15 6.979-15 2.766-14 9.465-14 2.120-19 8.434-19
 HOCL            2.852-17 1.078-16 3.486-16 9.906-16 2.523-15 5.857-15 1.088-18 2.693-18
 *H2             8.7306-1 8.7306-1 8.7307-1 8.7308-1 8.7308-1 8.7307-1 8.7305-1 8.7305-1
 H2F2            3.239-13 2.991-13 2.796-13 2.638-13 2.509-13 2.401-13 4.544-13 4.280-13
 H2O             6.7880-3 6.7880-3 6.7879-3 6.7880-3 6.7888-3 6.7912-3 6.7881-3 6.7881-3
 H2O2            2.090-17 1.263-16 6.193-16 2.552-15 9.077-15 2.850-14 2.530-19 8.605-19
 H2S             3.3101-4 3.3098-4 3.3091-4 3.3080-4 3.3059-4 3.3023-4 3.3104-4 3.3104-4
 *He             1.1886-1 1.1886-1 1.1885-1 1.1885-1 1.1885-1 1.1885-1 1.1886-1 1.1886-1
 *Mg             4.802-12 6.091-11 5.649-10 4.037 -9 2.638 -8 1.606 -7 7.683-15 4.462-14
 MgBr            8.929-17 6.705-16 3.914-15 1.853-14 8.369-14 3.651-13 6.597-19 2.244-18
 MgCL            1.221-13 8.966-13 5.132-12 2.388-11 1.062-10 4.574-10 7.996-16 3.197-15
 MgCL2           2.390-12 5.198-12 1.020-11 1.835-11 3.497-11 7.031-11 3.372-13 5.841-13
 MgF             1.082-14 8.101-14 4.719-13 2.230-12 1.007-11 4.392-11 6.777-17 2.742-16
 MgF2            4.252-15 1.058-14 2.339-14 4.686-14 9.831-14 2.157-13 4.338-16 8.215-16
 MgH             1.851-14 3.528-13 4.690-12 4.618-11 4.021-10 3.171 -9 1.161-17 8.900-17
 MgN             7.368-19 2.446-17 5.230-16 7.741-15 9.566-14 1.021-12 9.969-23 1.135-21
 *MgO            1.071-17 2.857-16 5.144-15 6.663-14 7.443-13 7.368-12 2.835-21 2.701-20
 MgOH            7.262-13 7.986-12 6.544-11 4.196-10 2.491 -9 1.394 -8 1.778-15 9.327-15
 Mg(OH)2         8.408-11 4.188-10 1.716 -9 5.970 -9 2.061 -8 7.103 -8 1.582-12 4.780-12
 MgS             7.114-15 9.181-14 8.693-13 6.358-12 4.259-11 2.661-10 1.113-17 6.489-17
 Mg2             1.902-23 2.593-21 1.911-19 8.438-18 3.139-16 1.021-14 7.993-29 2.447-27
 *N              3.324-18 4.717-17 4.839-16 3.783-15 2.351-14 1.204-13 3.882-21 2.411-20
 *NH             1.081-14 8.339-14 4.989-13 2.412-12 9.744-12 3.382-11 6.008-17 2.464-16
 NH2             3.731-10 1.208 -9 3.361 -9 8.228 -9 1.809 -8 3.630 -8 1.870-11 4.240-11
 NH3             3.8371-4 3.7312-4 3.5920-4 3.4248-4 3.2388-4 3.0441-4 3.9642-4 3.9491-4
 NH2OH           7.796-15 2.689-14 7.950-14 2.064-13 4.802-13 1.018-12 3.649-16 8.561-16
 *NO             2.418-15 1.729-14 9.687-14 4.422-13 1.698-12 5.635-12 1.526-17 5.929-17
 *N2             7.9999-6 1.3294-5 2.0250-5 2.8602-5 3.7893-5 4.7612-5 1.6466-6 2.4014-6
 N2H2            8.238-16 3.876-15 1.486-14 4.789-14 1.334-13 3.283-13 1.515-17 4.471-17
 N2H4            1.953-14 5.011-14 1.124-13 2.247-13 4.073-13 6.808-13 1.809-15 3.533-15
 *O              2.230-17 2.796-16 2.610-15 1.905-14 1.129-13 5.612-13 3.923-20 2.200-19
 *OH             8.336-11 3.494-10 1.238 -9 3.813 -9 1.044 -8 2.584 -8 2.304-12 6.129-12
 *O2             8.078-20 9.932-19 9.114-18 6.549-17 3.831-16 1.881-15 1.494-22 8.261-22
 *S              1.519-12 7.102-12 2.770-11 9.293-11 2.744-10 7.268-10 3.007-14 8.618-14
 SCL             8.933-18 3.622-17 1.245-16 3.731-16 9.955-16 2.405-15 2.674-19 6.958-19
 SH              2.3647-8 5.4740-8 1.1474-7 2.2139-7 3.9830-7 6.7504-7 2.8047-9 4.9810-9
 SN              2.214-15 1.250-14 5.675-14 2.146-13 6.954-13 1.977-12 2.485-17 8.236-17
 SO              1.196-13 4.891-13 1.697-12 5.130-12 1.381-11 3.366-11 3.295-15 8.612-15
 SO2             4.853-15 1.534-14 4.248-14 1.052-13 2.371-13 4.931-13 2.543-16 5.554-16
 S2              3.772-12 9.350-12 2.082-11 4.238-11 7.997-11 1.414-10 3.548-13 6.599-13
 S2O             6.618-17 2.282-16 6.808-16 1.798-15 4.286-15 9.356-15 2.778-18 6.459-18
 *Si             5.263-19 3.912-17 1.751-15 5.138-14 8.162-13 7.613-12 1.131-23 2.165-22
 SiBr            6.576-20 1.486-18 2.325-17 2.679-16 1.842-15 8.077-15 3.367-23 2.394-22
 SiCL            1.049-17 2.652-16 4.576-15 5.755-14 4.280-13 2.014-12 3.419-21 3.132-20
 SiCL2           1.005-17 8.899-17 6.092-16 3.369-15 1.202-14 2.923-14 4.635-20 2.070-19
 SiF             4.072-19 1.100-17 2.016-16 2.674-15 2.085-14 1.025-13 1.128-22 1.081-21
 SiFCL           3.226-17 2.408-16 1.419-15 6.871-15 2.176-14 4.756-14 2.270-19 9.009-19
 SiF2            2.610-17 1.644-16 8.346-16 3.541-15 9.966-15 1.959-14 2.797-19 9.872-19
 SiH             1.557-16 7.554-15 2.319-13 4.868-12 5.727-11 4.076-10 1.018-20 1.457-19
 SiHCL           7.134-16 1.153-14 1.342-13 1.190-12 6.477-12 2.303-11 7.469-19 5.035-18
 SiHF            1.429-15 1.937-14 1.936-13 1.503-12 7.282-12 2.337-11 2.332-18 1.388-17
 SiH2            1.195-14 3.585-13 7.221-12 1.045-10 8.835-10 4.681 -9 2.747-18 2.819-17
 SiH2CL2         1.191-15 4.877-15 1.699-14 5.179-14 1.089-13 1.650-13 4.254-17 1.112-16
 SiH2F2          7.545-14 1.786-13 3.842-13 7.632-13 1.094-12 1.175-12 1.044-14 1.872-14
 SiH3            1.165-13 2.472-12 3.668-11 4.044-10 2.680 -9 1.140 -8 6.728-17 5.442-16
 SiH3Br          5.747-16 3.646-15 1.868-14 8.019-14 2.289-13 4.565-13 8.322-18 2.461-17
 SiH3CL          9.069-13 5.537-12 2.743-11 1.143-10 3.178-10 6.196-10 1.210-14 4.159-14
 SiH3F           6.904-12 3.212-11 1.252-10 4.220-10 9.700-10 1.594 -9 1.803-13 5.143-13
 SiH4            2.569-10 2.322 -9 1.627 -8 9.218 -8 3.374 -7 8.424 -7 1.301-12 5.856-12
 SiN             1.069-20 8.278-19 3.793-17 1.122-15 1.773-14 1.626-13 1.897-25 3.777-24
 SiO             5.369-11 8.756-10 1.027 -8 9.173 -8 5.023 -7 1.796 -6 4.836-14 3.279-13
 SiO2            2.221-15 4.271-14 5.818-13 5.949-12 3.688-11 1.478-10 1.356-18 1.022-17
 SiS             4.399-12 6.588-11 7.157-10 5.959 -9 3.060 -8 1.031 -7 4.849-15 3.111-14
 SiS2            1.717-14 1.823-13 1.465-12 9.338-12 3.780-11 1.029-10 4.457-17 2.252-16
 MgSiO3(III)     4.3845-4 4.3844-4 4.3839-4 4.3806-4 0.0000 0 0.0000 0 4.3845-4 4.3845-4
 MgSiO3(L)       0.0000 0 0.0000 0 0.0000 0 0.0000 0 4.3672-4 4.3314-4 0.0000 0 0.0000 0
 Mg2SiO4(cr)     1.3118-4 1.3118-4 1.3120-4 1.3136-4 1.3200-4 1.3368-4 1.3118-4 1.3118-4

  * THERMODYNAMIC PROPERTIES FITTED TO 20000.K

    PRODUCTS WHICH WERE CONSIDERED BUT WHOSE MOLE FRACTIONS
    WERE LESS THAN 1.000000E-15 FOR ALL ASSIGNED CONDITIONS

 BrCL            BrF             BrF3            BrF5            BrO            
 OBrO            BrOO            BrO3            Br2             BrBrO          
 BrOBr           CLF             CLF3            CLF5            CLO            
 CLO2            CL2             CL2O            FO              FO2,FOO        
 FO2,OFO         F2              F2O             F2O2            FS2F           
 HNO2            HNO3            HOF             HO2             HSO3F          
 H2SO4           H3F3            H4F4            H5F5            H6F6           
 H7F7            MgBr2           Mg2F4           NF              NF2            
 NF3             NHF             NHF2            NH2F            NOCL           
 NOF             NOF3            NO2             NO2CL           NO2F           
 NO3             NO3F            N2F2            N2F4            NH2NO2         
 N2O             N2O3            N2O4            N2O5            N3             
 N3H             O3              SCL2            SF              SF2            
 SF3             SF4             SF5             SF6             SOF2           
 SO2CL2          SO2FCL          SO2F2           SO3             S2CL2          
 S2F2            S3              S4              S5              S6             
 S7              S8              SiBr2           SiBr3           SiBr4          
 SiCL3           SiCL4           SiF3            SiF4            SiHBr3         
 SiHCL3          SiHF3           SiH2Br2         Si2             Si2F6          
 Si2N            Si3             Br2(cr)         Br2(L)          H2O(cr)        
 H2O(L)          H2SO4(L)        Mg(cr)          Mg(L)           MgBr2(cr)      
 MgBr2(L)        MgCL2(cr)       MgCL2(L)        MgF2(cr)        MgF2(L)        
 MgH2(b)         MgH2(L)         MgO(cr)         MgO(L)          Mg(OH)2(cr)    
 Mg(OH)2(L)      MgS(cr)         MgS(L)          MgSO4(II)       MgSO4(I)       
 MgSO4(L)        MgSiO3(I)       MgSiO3(II)      Mg2SiO4(L)      Mg3N2(cr)      
 NH4CL(II)       NH4CL(III)      NH4F(cr)        NH4F(L)         S(a)           
 S(b)            S(L)            SCL2(L)         S2CL2(L)        Si(cr)         
 Si(L)           SiO2(a-qz)      SiO2(b-qz)      SiO2(b-crt)     SiO2(L)        
 SiS(cr)         SiS(L)          SiS2(cr)        SiS2(L)         Si2N2O(cr)     
 Si3N4(cr)      






 POINT ITN      T            H           HE          N           S 
                    O           F           MG          SI          CL
                    BR
   1    2    1400.000      -5.259     -11.182     -15.187     -19.528
                 -33.249     -48.046     -28.232     -22.625     -31.949
                 -35.394
   2    2    1450.000      -5.309     -11.251     -15.080     -19.511
                 -32.565     -47.287     -27.225     -21.480     -31.729
                 -35.342
   3    2    1500.000      -5.358     -11.319     -14.985     -19.498
                 -31.928     -46.580     -26.291     -20.415     -31.526
                 -35.295
   4    4    1600.000      -5.453     -11.449     -14.826     -19.482
                 -30.780     -45.305     -24.619     -18.494     -31.165
                 -35.218
   5    4    1700.000      -5.544     -11.574     -14.705     -19.476
                 -29.773     -44.188     -23.166     -16.810     -30.855
                 -35.158
   6    4    1800.000      -5.632     -11.692     -14.617     -19.480
                 -28.885     -43.201     -21.896     -15.320     -30.586
                 -35.113
 PHASE CHANGE, REPLACE  MgSiO3(III)    WITH  MgSiO3(L)      
   7    4    1900.000      -5.716     -11.805     -14.557     -19.490
                 -28.096     -42.325     -20.650     -14.253     -30.352
                 -35.078
   8    3    2000.000      -5.797     -11.914     -14.520     -19.507
                 -27.391     -41.542     -19.417     -13.556     -30.147
                 -35.055




               THERMODYNAMIC EQUILIBRIUM PROPERTIES AT ASSIGNED

                           TEMPERATURE AND PRESSURE

 CASE = saturn         

             REACTANT                       MOLES         ENERGY      TEMP
                                                         KJ/KG-MOL      K
 NAME        H2                           1.0000000         0.000      0.000
 NAME        He                           0.1350000         0.000      0.000
 NAME        N2                           0.0002270         0.000      0.000
 NAME        H2S                          0.0003760         0.000      0.000
 NAME        O2                           0.0049000         0.000      0.000
 NAME        HF                           0.0000007         0.000      0.000
 NAME        Mg                           0.0007960         0.000      0.000
 NAME        Si                           0.0006470         0.000      0.000
 NAME        HCL                          0.0000063         0.000      0.000
 NAME        HBr                          0.0000000         0.000      0.000

 O/F=    0.00000  %FUEL=  0.000000  R,EQ.RATIO=*********  PHI,EQ.RATIO= 0.000000

 THERMODYNAMIC PROPERTIES

 P, BAR           3037.79  3037.79  3037.79  3037.79  3037.79  3037.79  3037.79  3037.79
 T, K             1400.00  1450.00  1500.00  1600.00  1700.00  1800.00  1900.00  2000.00
 RHO, KG/CU M    6.3681 1 6.1485 1 5.9435 1 5.5720 1 5.2442 1 4.9527 1 4.6920 1 4.4573 1
 H, KJ/KG         12048.3  12680.3  13316.4  14600.5  15900.0  17214.6  18557.5  19901.5
 U, KJ/KG         7277.96  7739.60  8205.28  9148.56  10107.3  11081.1  12083.1  13086.1
 G, KJ/KG        -52148.1 -54451.9 -56777.7 -61492.4 -66287.9 -71160.4 -76106.7 -81123.7
 S, KJ/(KG)(K)    45.8546  46.2981  46.7294  47.5580  48.3459  49.0972  49.8233  50.5126

 M, (1/n)           2.440    2.440    2.440    2.440    2.440    2.440    2.440    2.440
 MW, MOL WT         2.439    2.439    2.439    2.439    2.439    2.439    2.439    2.439
 (dLV/dLP)t      -1.00001 -1.00002 -1.00002 -1.00004 -1.00006 -1.00008 -1.00010 -1.00012
 (dLV/dLT)p        1.0001   1.0001   1.0001   1.0002   1.0002   1.0003   1.0004   1.0006
 Cp, KJ/(KG)(K)   12.5999  12.6811  12.7614  12.9190  13.0716  13.2197  13.3678  13.5107
 GAMMAs            1.3707   1.3675   1.3643   1.3583   1.3527   1.3474   1.3423   1.3376
 SON VEL,M/SEC     2557.1   2599.3   2640.7   2721.3   2799.3   2874.8   2948.0   3019.3

 MOLE FRACTIONS

 *Br             8.843-14 1.396-13 2.139-13 4.649-13 9.251-13 1.711-12 2.975-12 4.906-12
 *CL             4.324-13 8.315-13 1.531-12 4.640-12 1.236-11 2.955-11 6.454-11 1.305-10
 *F              7.177-19 2.085-18 5.648-18 3.443-17 1.700-16 7.038-16 2.512-15 7.901-15
 *H              8.2520-8 1.6046-7 2.9867-7 9.2261-7 2.5007-6 6.0773-6 1.3470-5 2.7606-5
 HBr             6.1014-9 6.1014-9 6.1013-9 6.1013-9 6.1012-9 6.1011-9 6.1010-9 6.0959-9
 HCL             5.5643-6 5.5643-6 5.5643-6 5.5642-6 5.5641-6 5.5638-6 5.5634-6 5.5624-6
 *HF             6.3919-7 6.3919-7 6.3918-7 6.3914-7 6.3903-7 6.3868-7 6.3803-7 6.3726-7
 HNO             3.039-18 1.001-17 3.044-17 2.273-16 1.328-15 6.317-15 2.526-14 8.713-14
 HOCL            6.252-18 1.370-17 2.852-17 1.078-16 3.486-16 9.906-16 2.523-15 5.857-15
 *H2             8.7305-1 8.7305-1 8.7305-1 8.7306-1 8.7306-1 8.7307-1 8.7307-1 8.7307-1
 H2F2            4.054-13 3.857-13 3.686-13 3.404-13 3.182-13 3.002-13 2.854-13 2.731-13
 H2O             6.7881-3 6.7881-3 6.7881-3 6.7880-3 6.7880-3 6.7881-3 6.7889-3 6.7913-3
 H2O2            2.685-18 7.757-18 2.090-17 1.263-16 6.193-16 2.552-15 9.077-15 2.850-14
 H2S             3.3103-4 3.3103-4 3.3102-4 3.3098-4 3.3092-4 3.3081-4 3.3062-4 3.3029-4
 *He             1.1886-1 1.1886-1 1.1886-1 1.1886-1 1.1885-1 1.1885-1 1.1885-1 1.1885-1
 *Mg             2.275-13 1.033-12 4.220-12 5.352-11 4.964-10 3.547 -9 2.318 -8 1.411 -7
 MgBr            8.209-18 2.734-17 8.370-17 6.285-16 3.669-15 1.737-14 7.844-14 3.422-13
 MgCL            1.153-14 3.787-14 1.145-13 8.405-13 4.811-12 2.238-11 9.956-11 4.287-10
 MgCL2           9.695-13 1.549-12 2.390-12 5.198-12 1.020-11 1.835-11 3.497-11 7.031-11
 MgF             9.999-16 3.322-15 1.015-14 7.594-14 4.423-13 2.091-12 9.433-12 4.115-11
 MgF2            1.482-15 2.560-15 4.252-15 1.058-14 2.339-14 4.686-14 9.827-14 2.156-13
 MgH             5.875-16 3.391-15 1.735-14 3.307-13 4.396-12 4.329-11 3.769-10 2.972 -9
 MgN             1.080-20 8.746-20 6.123-19 2.044-17 4.402-16 6.568-15 8.186-14 8.808-13
 *MgO            2.188-19 1.532-18 9.407-18 2.511-16 4.520-15 5.855-14 6.540-13 6.475-12
 MgOH            4.332-14 1.804-13 6.808-13 7.486-12 6.134-11 3.933-10 2.335 -9 1.306 -8
 Mg(OH)2         1.333-11 3.458-11 8.408-11 4.188-10 1.716 -9 5.970 -9 2.061 -8 7.103 -8
 MgS             3.325-16 1.518-15 6.251-15 8.067-14 7.639-13 5.587-12 3.743-11 2.339-10
 Mg2             5.796-26 1.091-24 1.671-23 2.279-21 1.679-19 7.414-18 2.758-16 8.975-15
 *N              1.313-19 6.352-19 2.763-18 3.942-17 4.073-16 3.210-15 2.012-14 1.039-13
 *NH             9.128-16 3.084-15 9.587-15 7.434-14 4.479-13 2.183-12 8.896-12 3.113-11
 NH2             9.056-11 1.832-10 3.529-10 1.149 -9 3.220 -9 7.946 -9 1.761 -8 3.565 -8
 NH3             3.9292-4 3.9035-4 3.8714-4 3.7857-4 3.6705-4 3.5281-4 3.3650-4 3.1894-4
 NH2OH           1.891-15 3.953-15 7.865-15 2.728-14 8.123-14 2.126-13 4.990-13 1.067-12
 *NO             2.090-16 6.743-16 2.009-15 1.445-14 8.154-14 3.753-13 1.453-12 4.863-12
 *N2             3.3997-6 4.6829-6 6.2876-6 1.0567-5 1.6327-5 2.3438-5 3.1584-5 4.0354-5
 N2H2            1.220-16 3.097-16 7.369-16 3.506-15 1.363-14 4.466-14 1.265-13 3.167-13
 N2H4            6.567-15 1.167-14 1.988-14 5.159-14 1.174-13 2.384-13 4.397-13 7.474-13
 *O              1.092-18 4.860-18 1.959-17 2.457-16 2.294-15 1.674-14 9.923-14 4.931-13
 *OH             1.521-11 3.545-11 7.814-11 3.275-10 1.160 -9 3.574 -9 9.783 -9 2.422 -8
 *O2             4.049-21 1.780-20 7.098-20 8.728-19 8.008-18 5.755-17 3.366-16 1.653-15
 *S              2.292-13 5.701-13 1.335-12 6.240-12 2.435-11 8.166-11 2.411-10 6.388-10
 SCL             1.692-18 3.869-18 8.374-18 3.395-17 1.167-16 3.498-16 9.333-16 2.255-15
 SH              8.4900-9 1.3948-8 2.2167-8 5.1313-8 1.0756-7 2.0754-7 3.7340-7 6.3289-7
 SN              2.502-16 7.031-16 1.840-15 1.044-14 4.777-14 1.821-13 5.952-13 1.706-12
 SO              2.103-14 4.831-14 1.051-13 4.298-13 1.491-12 4.509-12 1.213-11 2.958-11
 SO2             1.149-15 2.262-15 4.264-15 1.348-14 3.733-14 9.245-14 2.084-13 4.334-13
 S2              1.174-12 2.009-12 3.315-12 8.217-12 1.830-11 3.725-11 7.029-11 1.243-10
 S2O             1.415-17 2.939-17 5.815-17 2.006-16 5.983-16 1.581-15 3.767-15 8.224-15
 *Si             3.351-21 4.288-20 4.624-19 3.438-17 1.538-15 4.515-14 7.172-13 6.689-12
 SiBr            1.740-21 1.102-20 6.164-20 1.393-18 2.179-17 2.511-16 1.727-15 7.571-15
 SiCL            2.445-19 1.654-18 9.836-18 2.486-16 4.290-15 5.395-14 4.012-13 1.888-12
 SiCL2           8.292-19 3.015-18 1.005-17 8.899-17 6.092-16 3.369-15 1.202-14 2.923-14
 SiF             8.795-21 6.187-20 3.817-19 1.031-17 1.889-16 2.506-15 1.954-14 9.603-14
 SiFCL           3.236-18 1.063-17 3.226-17 2.408-16 1.419-15 6.870-15 2.176-14 4.754-14
 SiF2            3.182-18 9.451-18 2.610-17 1.644-16 8.346-16 3.540-15 9.962-15 1.957-14
 SiH             1.721-18 1.712-17 1.459-16 7.080-15 2.174-13 4.563-12 5.368-11 3.820-10
 SiHCL           2.957-17 1.535-16 7.134-16 1.153-14 1.342-13 1.190-12 6.476-12 2.303-11
 SiHF            7.267-17 3.393-16 1.429-15 1.937-14 1.936-13 1.503-12 7.280-12 2.337-11
 SiH2            2.447-16 1.829-15 1.195-14 3.585-13 7.221-12 1.045-10 8.835-10 4.681 -9
 SiH2CL2         2.715-16 6.234-16 1.355-15 5.550-15 1.934-14 5.894-14 1.239-13 1.878-13
 SiH2F2          3.222-14 5.347-14 8.586-14 2.033-13 4.372-13 8.683-13 1.244-12 1.336-12
 SiH3            3.788-15 2.305-14 1.243-13 2.637-12 3.913-11 4.313-10 2.859 -9 1.216 -8
 SiH3Br          7.939-17 2.363-16 6.540-16 4.149-15 2.126-14 9.126-14 2.605-13 5.196-13
 SiH3CL          1.309-13 3.808-13 1.032-12 6.301-12 3.122-11 1.301-10 3.617-10 7.051-10
 SiH3F           1.361-12 3.369-12 7.857-12 3.655-11 1.425-10 4.802-10 1.104 -9 1.813 -9
 SiH4            2.366-11 8.684-11 2.923-10 2.643 -9 1.851 -8 1.049 -7 3.840 -7 9.587 -7
 SiN             6.059-23 8.007-22 8.887-21 6.918-19 3.193-17 9.522-16 1.517-14 1.403-13
 SiO             1.936-12 1.010-11 4.718-11 7.693-10 9.027 -9 8.060 -8 4.414 -7 1.578 -6
 SiO2            6.667-17 3.823-16 1.952-15 3.753-14 5.112-13 5.228-12 3.241-11 1.299-10
 SiS             1.744-13 8.668-13 3.865-12 5.788-11 6.289-10 5.236 -9 2.689 -8 9.059 -8
 SiS2            1.012-15 4.096-15 1.509-14 1.602-13 1.287-12 8.206-12 3.322-11 9.042-11
 MgSiO3(III)     4.3845-4 4.3845-4 4.3845-4 4.3844-4 4.3839-4 4.3806-4 0.0000 0 0.0000 0
 MgSiO3(L)       0.0000 0 0.0000 0 0.0000 0 0.0000 0 0.0000 0 0.0000 0 4.3676-4 4.3335-4
 Mg2SiO4(cr)     1.3118-4 1.3118-4 1.3118-4 1.3118-4 1.3121-4 1.3136-4 1.3199-4 1.3359-4

  * THERMODYNAMIC PROPERTIES FITTED TO 20000.K

    PRODUCTS WHICH WERE CONSIDERED BUT WHOSE MOLE FRACTIONS
    WERE LESS THAN 1.000000E-15 FOR ALL ASSIGNED CONDITIONS

 BrCL            BrF             BrF3            BrF5            BrO            
 OBrO            BrOO            BrO3            Br2             BrBrO          
 BrOBr           CLF             CLF3            CLF5            CLO            
 CLO2            CL2             CL2O            FO              FO2,FOO        
 FO2,OFO         F2              F2O             F2O2            FS2F           
 HNO2            HNO3            HOF             HO2             HSO3F          
 H2SO4           H3F3            H4F4            H5F5            H6F6           
 H7F7            MgBr2           Mg2F4           NF              NF2            
 NF3             NHF             NHF2            NH2F            NOCL           
 NOF             NOF3            NO2             NO2CL           NO2F           
 NO3             NO3F            N2F2            N2F4            NH2NO2         
 N2O             N2O3            N2O4            N2O5            N3             
 N3H             O3              SCL2            SF              SF2            
 SF3             SF4             SF5             SF6             SOF2           
 SO2CL2          SO2FCL          SO2F2           SO3             S2CL2          
 S2F2            S3              S4              S5              S6             
 S7              S8              SiBr2           SiBr3           SiBr4          
 SiCL3           SiCL4           SiF3            SiF4            SiHBr3         
 SiHCL3          SiHF3           SiH2Br2         Si2             Si2F6          
 Si2N            Si3             Br2(cr)         Br2(L)          H2O(cr)        
 H2O(L)          H2SO4(L)        Mg(cr)          Mg(L)           MgBr2(cr)      
 MgBr2(L)        MgCL2(cr)       MgCL2(L)        MgF2(cr)        MgF2(L)        
 MgH2(b)         MgH2(L)         MgO(cr)         MgO(L)          Mg(OH)2(cr)    
 Mg(OH)2(L)      MgS(cr)         MgS(L)          MgSO4(II)       MgSO4(I)       
 MgSO4(L)        MgSiO3(I)       MgSiO3(II)      Mg2SiO4(L)      Mg3N2(cr)      
 NH4CL(II)       NH4CL(III)      NH4F(cr)        NH4F(L)         S(a)           
 S(b)            S(L)            SCL2(L)         S2CL2(L)        Si(cr)         
 Si(L)           SiO2(a-qz)      SiO2(b-qz)      SiO2(b-crt)     SiO2(L)        
 SiS(cr)         SiS(L)          SiS2(cr)        SiS2(L)         Si2N2O(cr)     
 Si3N4(cr)      






 POINT ITN      T            H           HE          N           S 
                    O           F           MG          SI          CL
                    BR

 SINGULAR MATRIX, ITERATION  1  VARIABLE 10(EQLBRM)
   1   18    1300.000      -5.092     -10.912     -15.501     -19.575
                 -34.783     -49.686     -30.504     -25.196     -32.386
                 -35.281
   2    2    1350.000      -5.145     -10.985     -15.367     -19.549
                 -33.987     -48.802     -29.322     -23.860     -32.126
                 -35.390
   3    2    1400.000      -5.196     -11.056     -15.246     -19.528
                 -33.249     -47.983     -28.232     -22.625     -31.887
                 -35.331
   4    2    1450.000      -5.246     -11.126     -15.138     -19.511
                 -32.565     -47.224     -27.225     -21.480     -31.667
                 -35.279
   5    2    1500.000      -5.295     -11.193     -15.041     -19.498
                 -31.928     -46.517     -26.291     -20.415     -31.464
                 -35.232
   6    3    1600.000      -5.390     -11.324     -14.877     -19.482
                 -30.780     -45.242     -24.619     -18.494     -31.103
                 -35.155
   7    3    1700.000      -5.481     -11.448     -14.750     -19.476
                 -29.773     -44.125     -23.166     -16.810     -30.792
                 -35.096
   8    4    1800.000      -5.569     -11.566     -14.655     -19.480
                 -28.885     -43.138     -21.896     -15.320     -30.523
                 -35.050




               THERMODYNAMIC EQUILIBRIUM PROPERTIES AT ASSIGNED

                           TEMPERATURE AND PRESSURE

 CASE = saturn         

             REACTANT                       MOLES         ENERGY      TEMP
                                                         KJ/KG-MOL      K
 NAME        H2                           1.0000000         0.000      0.000
 NAME        He                           0.1350000         0.000      0.000
 NAME        N2                           0.0002270         0.000      0.000
 NAME        H2S                          0.0003760         0.000      0.000
 NAME        O2                           0.0049000         0.000      0.000
 NAME        HF                           0.0000007         0.000      0.000
 NAME        Mg                           0.0007960         0.000      0.000
 NAME        Si                           0.0006470         0.000      0.000
 NAME        HCL                          0.0000063         0.000      0.000
 NAME        HBr                          0.0000000         0.000      0.000

 O/F=    0.00000  %FUEL=  0.000000  R,EQ.RATIO=*********  PHI,EQ.RATIO= 0.000000

 THERMODYNAMIC PROPERTIES

 P, BAR           3444.73  3444.73  3444.73  3444.73  3444.73  3444.73  3444.73  3444.73
 T, K             1300.00  1350.00  1400.00  1450.00  1500.00  1600.00  1700.00  1800.00
 RHO, KG/CU M    7.7766 1 7.4886 1 7.2212 1 6.9721 1 6.7397 1 6.3184 1 5.9467 1 5.6163 1
 H, KJ/KG         10796.5  11420.3  12048.3  12680.3  13316.3  14600.3  15899.9  17214.4
 U, KJ/KG         6366.87  6820.36  7277.93  7739.57  8205.24  9148.47  10107.2  11080.9
 G, KJ/KG        -47051.7 -49288.4 -51548.4 -53830.8 -56135.1 -60807.0 -65559.7 -70389.3
 S, KJ/(KG)(K)    44.4986  44.9694  45.4262  45.8697  46.3010  47.1296  47.9174  48.6687

[...]
 NAME        HCL                          0.0000063         0.000      0.000
 NAME        HBr                          0.0000000         0.000      0.000

 O/F=    0.00000  %FUEL=  0.000000  R,EQ.RATIO=*********  PHI,EQ.RATIO= 0.000000

 THERMODYNAMIC PROPERTIES

 P, BAR           8466.92  8466.92  10347.6  10347.6  10347.6  10347.6  10347.6  10347.6
 T, K             1900.00  2000.00  1300.00  1350.00  1400.00  1450.00  1500.00  1600.00
 RHO, KG/CU M    1.3078 2 1.2424 2 2.3360 2 2.2495 2 2.1692 2 2.0944 2 2.0246 2 1.8980 2
 H, KJ/KG         18555.9  19898.9  10796.4  11420.2  12048.2  12680.1  13316.1  14600.0
 U, KJ/KG         12081.8  13084.1  6366.83  6820.30  7277.84  7739.44  8205.07  9148.18
 G, KJ/KG        -69470.3 -74138.0 -42179.5 -44228.9 -46301.5 -48396.5 -50513.4 -54810.5
 S, KJ/(KG)(K)    46.3296  47.0185  40.7507  41.2216  41.6783  42.1218  42.5530  43.3816

 M, (1/n)           2.440    2.440    2.440    2.440    2.440    2.440    2.440    2.440
 MW, MOL WT         2.439    2.439    2.439    2.439    2.439    2.439    2.439    2.439
 (dLV/dLP)t      -1.00002 -1.00004 -1.00000 -1.00000 -1.00000 -1.00000 -1.00000 -1.00000
 (dLV/dLT)p        1.0001   1.0002   1.0000   1.0000   1.0000   1.0000   1.0000   1.0000
 Cp, KJ/(KG)(K)   13.3610  13.4999  12.4360  12.5175  12.5989  12.6798  12.7598  12.9165
 GAMMAs            1.3424   1.3377   1.3774   1.3740   1.3707   1.3675   1.3643   1.3583
 SON VEL,M/SEC     2948.0   3019.3   2470.1   2514.0   2557.1   2599.3   2640.7   2721.3

 MOLE FRACTIONS

 *Br             1.782-12 2.941-12 2.044-14 2.937-14 4.791-14 7.563-14 1.159-13 2.519-13
 *CL             3.866-11 7.815-11 5.460-14 1.162-13 2.343-13 4.505-13 8.298-13 2.514-12
 *F              1.500-15 4.709-15 3.610-20 1.238-19 3.888-19 1.130-18 3.060-18 1.865-17
 *H              8.0684-6 1.6535-5 1.0168-8 2.1906-8 4.4711-8 8.6940-8 1.6183-7 4.9989-7
 HBr             6.1013-9 6.1013-9 7.1844-9 6.1019-9 6.1014-9 6.1014-9 6.1014-9 6.1014-9
 HCL             5.5631-6 5.5618-6 5.5643-6 5.5643-6 5.5643-6 5.5643-6 5.5643-6 5.5643-6
 *HF             6.3611-7 6.3410-7 6.3920-7 6.3919-7 6.3919-7 6.3918-7 6.3917-7 6.3908-7
 HNO             1.047-14 3.771-14 6.271-20 2.503-19 9.062-19 3.004-18 9.202-18 7.010-17
 HOCL            2.524-15 5.859-15 1.088-18 2.693-18 6.252-18 1.370-17 2.852-17 1.078-16
 *H2             8.7304-1 8.7303-1 8.7305-1 8.7305-1 8.7305-1 8.7305-1 8.7305-1 8.7305-1
 H2F2            7.907-13 7.537-13 1.548-12 1.458-12 1.381-12 1.314-12 1.256-12 1.159-12
 H2O             6.7904-3 6.7940-3 6.7881-3 6.7881-3 6.7881-3 6.7881-3 6.7881-3 6.7881-3
 H2O2            9.082-15 2.853-14 2.530-19 8.605-19 2.685-18 7.757-18 2.090-17 1.263-16
 H2S             3.3081-4 3.3062-4 3.3104-4 3.3104-4 3.3104-4 3.3104-4 3.3103-4 3.3102-4
 *He             1.1886-1 1.1886-1 1.1886-1 1.1886-1 1.1886-1 1.1886-1 1.1886-1 1.1886-1
 *Mg             8.314 -9 5.061 -8 2.255-15 1.310-14 6.679-14 3.031-13 1.239-12 1.571-11
 MgBr            4.698-14 2.051-13 3.524-19 1.216-18 4.448-18 1.481-17 4.535-17 3.405-16
 MgCL            5.962-11 2.567-10 4.333-16 1.732-15 6.245-15 2.052-14 6.203-14 4.554-13
 MgCL2           3.496-11 7.027-11 3.372-13 5.841-13 9.695-13 1.549-12 2.390-12 5.198-12
 MgF             5.632-12 2.452-11 3.672-17 1.486-16 5.418-16 1.800-15 5.497-15 4.114-14
 MgF2            9.765-14 2.133-13 4.338-16 8.215-16 1.482-15 2.560-15 4.252-15 1.058-14
 MgH             2.257-10 1.780 -9 6.289-18 4.822-17 3.183-16 1.838-15 9.400-15 1.792-13
 MgN             2.033-14 2.282-13 1.598-23 1.826-22 1.745-21 1.422-20 1.003-19 3.416-18
 *MgO            2.346-13 2.323-12 8.322-22 7.929-21 6.423-20 4.497-19 2.762-18 7.371-17
 MgOH            1.399 -9 7.825 -9 9.632-16 5.054-15 2.347-14 9.775-14 3.689-13 4.056-12
 Mg(OH)2         2.061 -8 7.106 -8 1.582-12 4.780-12 1.333-11 3.458-11 8.408-11 4.188-10
 MgS             1.343-11 8.397-11 3.269-18 1.905-17 9.762-17 4.458-16 1.835-15 2.368-14
 Mg2             9.891-17 3.217-15 2.347-29 7.183-28 1.702-26 3.203-25 4.905-24 6.689-22
 *N              4.997-15 2.692-14 6.222-22 3.877-21 2.121-20 1.032-19 4.524-19 6.588-18
 *NH             3.688-12 1.347-11 1.777-17 7.315-17 2.722-16 9.252-16 2.898-15 2.293-14
 NH2             1.219 -8 2.575 -8 1.021-11 2.323-11 4.984-11 1.014-10 1.968-10 6.541-10
 NH3             3.8884-4 3.8458-4 3.9943-4 3.9929-4 3.9911-4 3.9887-4 3.9857-4 3.9773-4
 NH2OH           5.767-13 1.287-12 3.677-16 8.656-16 1.921-15 4.040-15 8.098-15 2.866-14
 *NO             3.610-13 1.261-12 2.446-18 9.537-18 3.376-17 1.096-16 3.291-16 2.415-15
 *N2             5.4293-6 7.5536-6 1.4408-7 2.1158-7 3.0233-7 4.2143-7 5.7440-7 1.0053-6
 N2H2            6.060-14 1.652-13 4.516-18 1.342-17 3.694-17 9.494-17 2.293-16 1.136-15
 N2H4            5.872-13 1.087-12 1.836-15 3.612-15 6.776-15 1.218-14 2.107-14 5.694-14
 *O              3.561-14 1.770-13 1.152-20 6.459-20 3.207-19 1.427-18 5.752-18 7.214-17
 *OH             5.861 -9 1.451 -8 1.249-12 3.321-12 8.240-12 1.921-11 4.234-11 1.775-10
 *S              8.657-11 2.294-10 8.826-15 2.530-14 6.730-14 1.674-13 3.919-13 1.832-12
 SCL             5.593-16 1.352-15 1.449-19 3.770-19 9.166-19 2.096-18 4.538-18 1.840-17
 SH              2.2379-7 3.7949-7 1.5197-9 2.6988-9 4.6002-9 7.5575-9 1.2011-8 2.7806-8
 SN              1.479-13 4.426-13 3.983-18 1.325-17 4.044-17 1.143-16 3.014-16 1.746-15
 SO              4.357-12 1.063-11 9.673-16 2.528-15 6.174-15 1.418-14 3.084-14 1.262-13
 SO2             7.484-14 1.558-13 7.467-17 1.630-16 3.372-16 6.643-16 1.252-15 3.959-15
 S2              2.525-11 4.469-11 1.042-13 1.937-13 3.448-13 5.897-13 9.732-13 2.413-12
 S2O             1.354-15 2.958-15 8.156-19 1.896-18 4.154-18 8.628-18 1.707-17 5.889-17
 *Si             2.572-13 2.398-12 3.321-24 6.357-23 9.838-22 1.259-20 1.358-19 1.009-17
 SiBr            1.034-15 4.535-15 1.799-23 1.297-22 9.430-22 5.971-21 3.340-20 7.548-19
 SiCL            2.402-13 1.130-12 1.852-21 1.697-20 1.325-19 8.960-19 5.329-18 1.347-16
 SiCL2           1.201-14 2.919-14 4.635-20 2.070-19 8.292-19 3.015-18 1.005-17 8.899-17
 SiF             1.166-14 5.719-14 6.112-23 5.855-22 4.765-21 3.352-20 2.068-19 5.588-18
 SiFCL           2.168-14 4.726-14 2.270-19 9.009-19 3.236-18 1.063-17 3.226-17 2.408-16
 SiF2            9.898-15 1.936-14 2.796-19 9.872-19 3.182-18 9.451-18 2.610-17 1.644-16
 SiH             3.214-11 2.286-10 5.515-21 7.893-20 9.322-19 9.273-18 7.905-17 3.836-15
 SiHCL           6.473-12 2.300-11 7.468-19 5.035-18 2.957-17 1.535-16 7.134-16 1.153-14
 SiHF            7.255-12 2.323-11 2.332-18 1.388-17 7.267-17 3.392-16 1.429-15 1.936-14
 SiHF3           1.186-15 8.402-16 5.457-16 6.260-16 7.119-16 8.033-16 9.004-16 1.112-15
 SiH2            8.830-10 4.677 -9 2.747-18 2.819-17 2.447-16 1.829-15 1.194-14 3.584-13
 SiH2CL2         3.451-13 5.227-13 1.449-16 3.788-16 9.248-16 2.124-15 4.616-15 1.890-14
 SiH2F2          3.445-12 3.683-12 3.554-14 6.376-14 1.098-13 1.821-13 2.924-13 6.923-13
 SiH3            4.770 -9 2.028 -8 1.242-16 1.004-15 6.991-15 4.254-14 2.294-13 4.867-12
 SiH3Br          7.257-13 1.448-12 2.795-17 8.383-17 2.704-16 8.047-16 2.228-15 1.413-14
 SiH3CL          1.008 -9 1.963 -9 4.120-14 1.417-13 4.459-13 1.297-12 3.515-12 2.146-11
 SiH3F           3.065 -9 5.024 -9 6.142-13 1.752-12 4.636-12 1.148-11 2.676-11 1.245-10
 SiH4            1.070 -6 2.669 -6 4.432-12 1.995-11 8.061-11 2.958-10 9.957-10 9.002 -9
 SiN             3.765-15 3.632-14 3.041-26 6.075-25 9.789-24 1.301-22 1.455-21 1.156-19
 SiO             1.583 -7 5.659 -7 1.420-14 9.627-14 5.684-13 2.966-12 1.385-11 2.259-10
 SiO2            1.163-11 4.659-11 3.981-19 3.000-18 1.957-17 1.122-16 5.730-16 1.102-14
 SiS             9.648 -9 3.251 -8 1.424-15 9.134-15 5.121-14 2.545-13 1.135-12 1.699-11
 SiS2            1.193-11 3.248-11 1.308-17 6.610-17 2.971-16 1.202-15 4.430-15 4.704-14
 MgSiO3(III)     0.0000 0 0.0000 0 4.3846-4 4.3846-4 4.3846-4 4.3846-4 4.3845-4 4.3844-4
 MgSiO3(L)       4.3599-4 4.3198-4 0.0000 0 0.0000 0 0.0000 0 0.0000 0 0.0000 0 0.0000 0
 Mg2SiO4(cr)     1.3240-4 1.3435-4 1.3118-4 1.3118-4 1.3118-4 1.3118-4 1.3119-4 1.3119-4

  * THERMODYNAMIC PROPERTIES FITTED TO 20000.K

    PRODUCTS WHICH WERE CONSIDERED BUT WHOSE MOLE FRACTIONS
    WERE LESS THAN 1.000000E-15 FOR ALL ASSIGNED CONDITIONS

 BrCL            BrF             BrF3            BrF5            BrO            
 OBrO            BrOO            BrO3            Br2             BrBrO          
 BrOBr           CLF             CLF3            CLF5            CLO            
 CLO2            CL2             CL2O            FO              FO2,FOO        
 FO2,OFO         F2              F2O             F2O2            FS2F           
 HNO2            HNO3            HOF             HO2             HSO3F          
 H2SO4           H3F3            H4F4            H5F5            H6F6           
 H7F7            MgBr2           Mg2F4           NF              NF2            
 NF3             NHF             NHF2            NH2F            NOCL           
 NOF             NOF3            NO2             NO2CL           NO2F           
 NO3             NO3F            N2F2            N2F4            NH2NO2         
 N2O             N2O3            N2O4            N2O5            N3             
 N3H             *O2             O3              SCL2            SF             
 SF2             SF3             SF4             SF5             SF6            
 SOF2            SO2CL2          SO2FCL          SO2F2           SO3            
 S2CL2           S2F2            S3              S4              S5             
 S6              S7              S8              SiBr2           SiBr3          
 SiBr4           SiCL3           SiCL4           SiF3            SiF4           
 SiHBr3          SiHCL3          SiH2Br2         Si2             Si2F6          
 Si2N            Si3             Br2(cr)         Br2(L)          H2O(cr)        
 H2O(L)          H2SO4(L)        Mg(cr)          Mg(L)           MgBr2(cr)      
 MgBr2(L)        MgCL2(cr)       MgCL2(L)        MgF2(cr)        MgF2(L)        
 MgH2(b)         MgH2(L)         MgO(cr)         MgO(L)          Mg(OH)2(cr)    
 Mg(OH)2(L)      MgS(cr)         MgS(L)          MgSO4(II)       MgSO4(I)       
 MgSO4(L)        MgSiO3(I)       MgSiO3(II)      Mg2SiO4(L)      Mg3N2(cr)      
 NH4CL(II)       NH4CL(III)      NH4F(cr)        NH4F(L)         S(a)           
 S(b)            S(L)            SCL2(L)         S2CL2(L)        Si(cr)         
 Si(L)           SiO2(a-qz)      SiO2(b-qz)      SiO2(b-crt)     SiO2(L)        
 SiS(cr)         SiS(L)          SiS2(cr)        SiS2(L)         Si2N2O(cr)     
 Si3N4(cr)      






 POINT ITN      T            H           HE          N           S 
                    O           F           MG          SI          CL
                    BR
   1    2    1700.000      -4.931     -10.348     -15.240     -19.476
                 -29.773     -43.575     -23.166     -16.810     -30.242
                 -34.546
   2    2    1800.000      -5.019     -10.466     -15.117     -19.479
                 -28.885     -42.590     -21.896     -15.320     -29.973
                 -34.500
 PHASE CHANGE, REPLACE  MgSiO3(III)    WITH  MgSiO3(L)      
   3    3    1900.000      -5.103     -10.580     -15.016     -19.490
                 -28.096     -41.716     -20.650     -14.254     -29.739
                 -34.466
   4    3    2000.000      -5.184     -10.688     -14.933     -19.505
                 -27.391     -40.936     -19.418     -13.557     -29.535
                 -34.441




               THERMODYNAMIC EQUILIBRIUM PROPERTIES AT ASSIGNED

                           TEMPERATURE AND PRESSURE

 CASE = saturn         

             REACTANT                       MOLES         ENERGY      TEMP
                                                         KJ/KG-MOL      K
 NAME        H2                           1.0000000         0.000      0.000
 NAME        He                           0.1350000         0.000      0.000
 NAME        N2                           0.0002270         0.000      0.000
 NAME        H2S                          0.0003760         0.000      0.000
 NAME        O2                           0.0049000         0.000      0.000
 NAME        HF                           0.0000007         0.000      0.000
 NAME        Mg                           0.0007960         0.000      0.000
 NAME        Si                           0.0006470         0.000      0.000
 NAME        HCL                          0.0000063         0.000      0.000
 NAME        HBr                          0.0000000         0.000      0.000

 O/F=    0.00000  %FUEL=  0.000000  R,EQ.RATIO=*********  PHI,EQ.RATIO= 0.000000

 THERMODYNAMIC PROPERTIES

 P, BAR           10347.6  10347.6  10347.6  10347.6
 T, K             1700.00  1800.00  1900.00  2000.00
 RHO, KG/CU M    1.7864 2 1.6871 2 1.5983 2 1.5184 2
 H, KJ/KG         15899.2  17213.4  18555.7  19898.7
 U, KJ/KG         10106.7  11080.1  12081.7  13083.9
 G, KJ/KG        -59188.4 -63643.2 -68171.7 -72771.0
 S, KJ/(KG)(K)    44.1692  44.9203  45.6460  46.3349

 M, (1/n)           2.440    2.440    2.440    2.440
 MW, MOL WT         2.439    2.439    2.439    2.439
 (dLV/dLP)t      -1.00001 -1.00001 -1.00002 -1.00003
 (dLV/dLT)p        1.0000   1.0001   1.0001   1.0001
 Cp, KJ/(KG)(K)   13.0681  13.2149  13.3604  13.4989
 GAMMAs            1.3527   1.3475   1.3424   1.3377
 SON VEL,M/SEC     2799.2   2874.8   2948.0   3019.3

 MOLE FRACTIONS

 *Br             5.013-13 9.271-13 1.612-12 2.661-12
 *CL             6.695-12 1.601-11 3.497-11 7.068-11
 *F              9.205-17 3.807-16 1.355-15 4.252-15
 *H              1.3549-6 3.2928-6 7.2984-6 1.4957-5
 HBr             6.1014-9 6.1014-9 6.1014-9 6.1013-9
 HCL             5.5642-6 5.5638-6 5.5629-6 5.5614-6
 *HF             6.3873-7 6.3762-7 6.3543-7 6.3301-7
 HNO             4.211-16 2.075-15 8.647-15 3.125-14
 HOCL            3.486-16 9.907-16 2.524-15 5.860-15
 *H2             8.7305-1 8.7305-1 8.7304-1 8.7303-1
 H2F2            1.083-12 1.019-12 9.642-13 9.179-13
 H2O             6.7882-3 6.7888-3 6.7909-3 6.7951-3
 H2O2            6.194-16 2.552-15 9.083-15 2.854-14
 H2S             3.3098-4 3.3093-4 3.3083-4 3.3067-4
 *He             1.1886-1 1.1886-1 1.1886-1 1.1886-1
 *Mg             1.457-10 1.041 -9 6.802 -9 4.140 -8
 MgBr            1.988-15 9.408-15 4.249-14 1.855-13
 MgCL            2.607-12 1.212-11 5.392-11 2.321-10
 MgCL2           1.020-11 1.835-11 3.495-11 7.025-11
 MgF             2.395-13 1.131-12 5.089-12 2.214-11
 MgF2            2.337-14 4.669-14 9.744-14 2.126-13
 MgH             2.382-12 2.345-11 2.041-10 1.609 -9
 MgN             7.564-17 1.169-15 1.518-14 1.709-13
 *MgO            1.327-15 1.719-14 1.920-13 1.901-12
 MgOH            3.323-11 2.131-10 1.265 -9 7.079 -9
 Mg(OH)2         1.7158-9 5.9710-9 2.0614-8 7.1071-8
 MgS             2.243-13 1.641-12 1.099-11 6.870-11
 Mg2             4.929-20 2.176-18 8.092-17 2.632-15
 *N              6.998-17 5.712-16 3.732-15 2.017-14
 *NH             1.420-13 7.170-13 3.045-12 1.116-11
 NH2             1.8843-9 4.8163-9 1.1126-8 2.3578-8
 NH3             3.9645-4 3.9468-4 3.9230-4 3.8932-4
 NH2OH           8.775-14 2.379-13 5.819-13 1.303-12
 *NO             1.401-14 6.679-14 2.696-13 9.448-13
 *N2             1.6417-6 2.5281-6 3.7001-6 5.1831-6
 N2H2            4.669-15 1.641-14 5.047-14 1.385-13
 N2H4            1.369-13 2.984-13 5.977-13 1.114-12
 *O              6.734-16 4.914-15 2.914-14 1.449-13
 *OH             6.288-10 1.937 -9 5.302 -9 1.313 -8
 *S              7.149-12 2.398-11 7.084-11 1.878-10
 SCL             6.327-17 1.896-16 5.060-16 1.223-15
 SH              5.8291-8 1.1249-7 2.0245-7 3.4332-7
 SN              8.209-15 3.242-14 1.104-13 3.317-13
 SO              4.379-13 1.324-12 3.566-12 8.700-12
 SO2             1.096-14 2.716-14 6.126-14 1.275-13
 S2              5.373-12 1.094-11 2.066-11 3.658-11
 S2O             1.757-16 4.644-16 1.108-15 2.422-15
 *Si             4.515-16 1.325-14 2.104-13 1.961-12
 SiBr            1.181-17 1.360-16 9.351-16 4.101-15
 SiCL            2.324-15 2.922-14 2.172-13 1.022-12
 SiCL2           6.091-16 3.369-15 1.201-14 2.918-14
 SiF             1.023-16 1.355-15 1.054-14 5.162-14
 SiFCL           1.418-15 6.857-15 2.166-14 4.716-14
 SiF2            8.337-16 3.528-15 9.875-15 1.929-14
 SiH             1.178-13 2.471-12 2.907-11 2.067-10
 SiHCL           1.342-13 1.190-12 6.472-12 2.299-11
 SiHF            1.935-13 1.500-12 7.246-12 2.318-11
 SiHF3           1.347-15 1.601-15 1.444-15 1.021-15
 SiH2            7.220-12 1.045-10 8.829-10 4.675 -9
 SiH2CL2         6.586-14 2.007-13 4.216-13 6.385-13
 SiH2F2          1.488-12 2.947-12 4.200-12 4.484-12
 SiH3            7.220-11 7.958-10 5.272 -9 2.241 -8
 SiH3Br          7.241-14 3.108-13 8.868-13 1.769-12
 SiH3CL          1.063-10 4.430-10 1.231 -9 2.398 -9
 SiH3F           4.852-10 1.632 -9 3.741 -9 6.127 -9
 SiH4            6.3041-8 3.5722-7 1.3070-6 3.2612-6
 SiN             5.485-18 1.694-16 2.811-15 2.721-14
 SiO             2.6500-9 2.3659-8 1.2953-7 4.6300-7
 SiO2            1.501-13 1.535-12 9.514-12 3.812-11
 SiS             1.846-10 1.537 -9 7.894 -9 2.659 -8
 SiS2            3.780-13 2.410-12 9.760-12 2.658-11
 MgSiO3(III)     4.3834-4 4.3775-4 0.0000 0 0.0000 0
 MgSiO3(L)       0.0000 0 0.0000 0 4.3557-4 4.3100-4
 Mg2SiO4(cr)     1.3124-4 1.3153-4 1.3261-4 1.3485-4

  * THERMODYNAMIC PROPERTIES FITTED TO 20000.K

    PRODUCTS WHICH WERE CONSIDERED BUT WHOSE MOLE FRACTIONS
    WERE LESS THAN 1.000000E-15 FOR ALL ASSIGNED CONDITIONS

 BrCL            BrF             BrF3            BrF5            BrO            
 OBrO            BrOO            BrO3            Br2             BrBrO          
 BrOBr           CLF             CLF3            CLF5            CLO            
 CLO2            CL2             CL2O            FO              FO2,FOO        
 FO2,OFO         F2              F2O             F2O2            FS2F           
 HNO2            HNO3            HOF             HO2             HSO3F          
 H2SO4           H3F3            H4F4            H5F5            H6F6           
 H7F7            MgBr2           Mg2F4           NF              NF2            
 NF3             NHF             NHF2            NH2F            NOCL           
 NOF             NOF3            NO2             NO2CL           NO2F           
 NO3             NO3F            N2F2            N2F4            NH2NO2         
 N2O             N2O3            N2O4            N2O5            N3             
 N3H             *O2             O3              SCL2            SF             
 SF2             SF3             SF4             SF5             SF6            
 SOF2            SO2CL2          SO2FCL          SO2F2           SO3            
 S2CL2           S2F2            S3              S4              S5             
 S6              S7              S8              SiBr2           SiBr3          
 SiBr4           SiCL3           SiCL4           SiF3            SiF4           
 SiHBr3          SiHCL3          SiH2Br2         Si2             Si2F6          
 Si2N            Si3             Br2(cr)         Br2(L)          H2O(cr)        
 H2O(L)          H2SO4(L)        Mg(cr)          Mg(L)           MgBr2(cr)      
 MgBr2(L)        MgCL2(cr)       MgCL2(L)        MgF2(cr)        MgF2(L)        
 MgH2(b)         MgH2(L)         MgO(cr)         MgO(L)          Mg(OH)2(cr)    
 Mg(OH)2(L)      MgS(cr)         MgS(L)          MgSO4(II)       MgSO4(I)       
 MgSO4(L)        MgSiO3(I)       MgSiO3(II)      Mg2SiO4(L)      Mg3N2(cr)      
 NH4CL(II)       NH4CL(III)      NH4F(cr)        NH4F(L)         S(a)           
 S(b)            S(L)            SCL2(L)         S2CL2(L)        Si(cr)         
 Si(L)           SiO2(a-qz)      SiO2(b-qz)      SiO2(b-crt)     SiO2(L)        
 SiS(cr)         SiS(L)          SiS2(cr)        SiS2(L)         Si2N2O(cr)     
 Si3N4(cr)      



