
 *******************************************************************************

         NASA-GLENN CHEMICAL EQUILIBRIUM PROGRAM CEA2, MAY 21, 2004
                   BY  BONNIE MCBRIDE AND SANFORD GORDON
      REFS: NASA RP-1311, PART I, 1994 AND NASA RP-1311, PART II, 1996

 *******************************************************************************



 prob
 case=saturn tp
 t,k= 800,850,900,950,1000,1050,1100,1150,1200,1250
 p,bar= 369.74, 455.55, 555.05, 669.65, 800.88, 950.36, 1119.83, 1311.16, 1526.32
 , 1767.42
 react
   name=H2 moles=1.0
   name=He moles=0.135
 #  name=CH4 moles=5.33e-3
   name=N2 moles = 2.27e-4
   name=H2S moles=3.76e-4
 #  name=PH3 moles = 7.28e-6
  
 # ten time solar water
   name=O2 moles = 4.9e-3
 # all others are ten time solar
   name=HF moles = 7.26e-7
 #  name=Na moles = 3.48e-5
   name=Mg moles = 7.96e-4
   name=Si moles=6.47e-4
  
   name=HCL moles = 6.32e-6
 #  name=K moles = 2.14e-6
 #  name=Ca moles = 4.38e-5
 #  name=GeH4 moles = 8.93e-8
   name=HBr moles=6.93e-9
  
 output    trace=1e-15
 plot t p Mg2SiO4(cr) MgSiO3(I) MgSiO3(II) MgSiO3(III) MgSiO3(L) SiO2 SiO SiH4 Si
 H3 SiH2
  
 end

 OPTIONS: TP=T  HP=F  SP=F  TV=F  UV=F  SV=F  DETN=F  SHOCK=F  REFL=F  INCD=F
 RKT=F  FROZ=F  EQL=F  IONS=F  SIUNIT=T  DEBUGF=F  SHKDBG=F  DETDBG=F  TRNSPT=F

 T,K =   800.0000   850.0000   900.0000   950.0000  1000.0000  1050.0000  1100.0000

 T,K =  1150.0000  1200.0000  1250.0000

 TRACE= 1.00E-15  S/R= 0.000000E+00  H/R= 0.000000E+00  U/R= 0.000000E+00

 P,BAR =   369.740000   455.550000   555.050000   669.650000   800.880000   950.360000  1119.830000

 P,BAR =  1311.160000  1526.320000  1767.420000

    REACTANT           MOLES    (ENERGY/R),K   TEMP,K  DENSITY
        EXPLODED FORMULA
 N: H2               1.000000   0.000000E+00     0.00  0.0000
          H  2.00000
 N: He               0.135000   0.000000E+00     0.00  0.0000
          HE 1.00000
 N: N2               0.000227   0.000000E+00     0.00  0.0000
          N  2.00000
 N: H2S              0.000376   0.000000E+00     0.00  0.0000
          H  2.00000  S  1.00000
 N: O2               0.004900   0.000000E+00     0.00  0.0000
          O  2.00000
 N: HF               0.000001   0.000000E+00     0.00  0.0000
          H  1.00000  F  1.00000
 N: Mg               0.000796   0.000000E+00     0.00  0.0000
          MG 1.00000
 N: Si               0.000647   0.000000E+00     0.00  0.0000
          SI 1.00000
 N: HCL              0.000006   0.000000E+00     0.00  0.0000
          H  1.00000  CL 1.00000
 N: HBr              0.000000   0.000000E+00     0.00  0.0000
          H  1.00000  BR 1.00000

  SPECIES BEING CONSIDERED IN THIS SYSTEM
 (CONDENSED PHASE MAY HAVE NAME LISTED SEVERAL TIMES)
  LAST thermo.inp UPDATE:    9/09/04

  g 3/97  *Br              tpis89  BrCL             tpis89  BrF            
  tpis89  BrF3             tpis89  BrF5             j 3/96  BrO            
  j 3/96  OBrO             j 3/96  BrOO             j 3/96  BrO3           
  tpis89  Br2              j 3/96  BrBrO            j 3/96  BrOBr          
  g 7/97  *CL              tpis89  CLF              tpis89  CLF3           
  tpis89  CLF5             tpis89  CLO              g 7/93  CLO2           
  tpis89  CL2              tpis89  CL2O             g 5/97  *F             
  j 9/95  FO               j 9/95  FO2,FOO          j 9/95  FO2,OFO        
  tpis89  F2               g 4/99  F2O              j 9/95  F2O2           
  j 6/76  FS2F             g 6/97  *H               tpis89  HBr            
  tpis89  HCL              tpis89  *HF              g10/01  HNO            
  tpis89  HNO2             g 5/99  HNO3             g 1/01  HOCL           
  tpis89  HOF              g 4/02  HO2              j 6/72  HSO3F          
  tpis78  *H2              tpis89  H2F2             g 8/89  H2O            
  g 6/99  H2O2             g 4/01  H2S              tpis89  H2SO4          
  tpis89  H3F3             tpis89  H4F4             tpis89  H5F5           
  tpis89  H6F6             tpis89  H7F7             g 5/97  *He            
  g 6/97  *Mg              tpis96  MgBr             tpis96  MgBr2          
  tpis96  MgCL             tpis96  MgCL2            tpis96  MgF            
  tpis96  MgF2             tpis96  MgH              j 3/64  MgN            
  tpis96  *MgO             tpis96  MgOH             tpis96  Mg(OH)2        
  tpis96  MgS              tpis96  Mg2              j12/75  Mg2F4          
  g 5/97  *N               tpis89  NF               g 4/99  NF2            
  g 4/99  NF3              g 4/99  *NH              tpis89  NHF            
  tpis89  NHF2             g 3/01  NH2              tpis89  NH2F           
  tpis89  NH3              tpis89  NH2OH            tpis89  *NO            
  g 4/99  NOCL             g 4/99  NOF              tpis89  NOF3           
  g 4/99  NO2              g 4/99  NO2CL            g 4/99  NO2F           
  j12/64  NO3              tpis89  NO3F             tpis78  *N2            
  tpis89  N2F2             tpis89  N2F4             g 5/99  N2H2           
  tpis89  NH2NO2           g 4/99  N2H4             g 4/99  N2O            
  g 4/99  N2O3             tpis89  N2O4             g 4/99  N2O5           
  tpis89  N3               g 4/99  N3H              g 5/97  *O             
  g 4/02  *OH              tpis89  *O2              g 8/01  O3             
  g 5/97  *S               j 6/78  SCL              j 6/78  SCL2           
  tpis89  SF               tpis89  SF2              tpis89  SF3            
  tpis89  SF4              tpis89  SF5              tpis89  SF6            
  g10/01  SH               tpis89  SN               tpis89  SO             
  tpis89  SOF2             tpis89  SO2              j 6/71  SO2CL2         
  j 6/71  SO2FCL           tpis89  SO2F2            tpis89  SO3            
  tpis89  S2               g12/00  S2CL2            j 6/76  S2F2           
  tpis89  S2O              tpis89  S3               tpis89  S4             
  tpis89  S5               tpis89  S6               tpis89  S7             
  tpis89  S8               g 8/97  *Si              tpis91  SiBr           
  tpis91  SiBr2            tpis91  SiBr3            tpis91  SiBr4          
  tpis91  SiCL             tpis91  SiCL2            tpis91  SiCL3          
  tpis91  SiCL4            tpis91  SiF              tpis91  SiFCL          
  tpis91  SiF2             tpis91  SiF3             g 6/01  SiF4           
  tpis91  SiH              j12/76  SiHBr3           tpis91  SiHCL          
  j12/76  SiHCL3           tpis91  SiHF             j 6/76  SiHF3          
  g 3/01  SiH2             j12/76  SiH2Br2          j12/76  SiH2CL2        
  j 6/76  SiH2F2           g 3/99  SiH3             j12/76  SiH3Br         
  j12/76  SiH3CL           j 6/76  SiH3F            tpis91  SiH4           
  g 5/99  SiN              tpis91  SiO              tpis91  SiO2           
  tpis91  SiS              tpis91  SiS2             tpis91  Si2            
  g 6/01  Si2F6            j 3/67  Si2N             g 7/95  Si3            
  g 8/01  Br2(cr)          g 8/01  Br2(L)           g 8/01  Br2(L)         
  g11/99  H2O(cr)          g 8/01  H2O(L)           g 8/01  H2O(L)         
  j 9/77  H2SO4(L)         srd 93  Mg(cr)           srd 93  Mg(cr)         
  srd 93  Mg(L)            tpis96  MgBr2(cr)        tpis96  MgBr2(L)       
  tpis96  MgCL2(cr)        tpis96  MgCL2(cr)        tpis96  MgCL2(L)       
  tpis96  MgF2(cr)         tpis96  MgF2(cr)         tpis96  MgF2(L)        
  tpis96  MgH2(b)          tpis96  MgH2(L)          tpis96  MgO(cr)        
  tpis96  MgO(cr)          tpis96  MgO(L)           tpis96  Mg(OH)2(cr)    
  tpis96  Mg(OH)2(cr)      tpis96  Mg(OH)2(L)       tpis96  MgS(cr)        
  tpis96  MgS(cr)          tpis96  MgS(L)           tpis96  MgSO4(II)      
  tpis96  MgSO4(II)        tpis96  MgSO4(I)         tpis96  MgSO4(L)       
  j12/67  MgSiO3(I)        j12/67  MgSiO3(II)       j12/67  MgSiO3(III)    
  j12/67  MgSiO3(L)        g11/00  Mg2SiO4(cr)      g11/00  Mg2SiO4(cr)    
  g11/00  Mg2SiO4(L)       tpis96  Mg3N2(cr)        j 9/65  NH4CL(II)      
  j 9/65  NH4CL(III)       j 9/65  NH4CL(III)       tpis89  NH4F(cr)       
  tpis89  NH4F(cr)         tpis89  NH4F(L)          tpis89  S(a)           
  tpis89  S(b)             tpis89  S(L)             tpis89  S(L)           
  tpis89  S(L)             tpis89  S(L)             tpis89  S(L)           
  j 6/78  SCL2(L)          j 6/78  S2CL2(L)         tpis91  Si(cr)         
  tpis91  Si(cr)           tpis91  Si(L)            tpis91  SiO2(a-qz)     
  tpis91  SiO2(b-qz)       tpis91  SiO2(b-crt)      tpis91  SiO2(L)        
  tpis91  SiS(cr)          tpis91  SiS(L)           tpis91  SiS2(cr)       
  tpis91  SiS2(cr)         tpis91  SiS2(L)          g 7/95  Si2N2O(cr)     
  g 7/95  Si2N2O(cr)       tpis91  Si3N4(cr)        tpis91  Si3N4(cr)      

 O/F =   0.000000

                       EFFECTIVE FUEL     EFFECTIVE OXIDANT        MIXTURE
 ENTHALPY                  h(2)/R              h(1)/R               h0/R
 (KG-MOL)(K)/KG        0.00000000E+00      0.00000000E+00      0.00000000E+00

 KG-FORM.WT./KG             bi(2)               bi(1)               b0i
  *H                   0.72230548E+00      0.00000000E+00      0.72230548E+00
  *He                  0.48737123E-01      0.00000000E+00      0.48737123E-01
  *N                   0.16390114E-03      0.00000000E+00      0.16390114E-03
  *S                   0.13574191E-03      0.00000000E+00      0.13574191E-03
  *O                   0.35379541E-02      0.00000000E+00      0.35379541E-02
  *F                   0.26209741E-06      0.00000000E+00      0.26209741E-06
  *Mg                  0.28736852E-03      0.00000000E+00      0.28736852E-03
  *Si                  0.23357717E-03      0.00000000E+00      0.23357717E-03
  *CL                  0.22816194E-05      0.00000000E+00      0.22816194E-05
  *Br                  0.25018390E-08      0.00000000E+00      0.25018390E-08

 POINT ITN      T            H           HE          N           S 
                    O           F           MG          SI          CL
                    BR
   1   44     800.000      -5.602     -12.288     -16.926     -20.322
                 -48.381     -78.572     -12.783      -0.829     -44.770
                 -42.798
 ADD  Mg2SiO4(cr)    
   1   10     800.000      -5.601     -12.288     -16.928     -20.322
                 -48.383     -77.593     -74.716      -1.813     -41.812
                 -40.564
 ADD  SiO2(a-qz)     
   1   16     800.000      -5.601     -12.288     -16.930     -20.322
                 -48.447     -65.997     -51.801     -47.390     -38.209
                 -38.026
 ADD  MgSiO3(I)      

 SINGULAR MATRIX, ITERATION  0  VARIABLE 14(EQLBRM)

 TRY REMOVING CONDENSED SPECIES (EQLBRM)
 REMOVE  SiO2(a-qz)     
   1    2     800.000      -5.601     -12.288     -16.930     -20.322
                 -48.447     -65.999     -51.181     -48.630     -38.209
                 -38.026
   2    2     850.000      -5.669     -12.385     -16.525     -20.183
                 -46.339     -63.650     -47.953     -44.964     -37.462
                 -37.776
   3    2     900.000      -5.735     -12.479     -16.169     -20.064
                 -44.470     -61.568     -45.100     -41.723     -36.805
                 -37.560
 PHASE CHANGE, REPLACE  MgSiO3(I)      WITH  MgSiO3(II)     
   4    2     950.000      -5.800     -12.571     -15.859     -19.963
                 -42.801     -59.710     -42.558     -38.849     -36.222
                 -37.373
   5    3    1000.000      -5.863     -12.660     -15.588     -19.877
                 -41.302     -58.043     -40.283     -36.278     -35.703
                 -37.210
   6    3    1050.000      -5.925     -12.746     -15.356     -19.804
                 -39.949     -56.539     -38.236     -33.965     -35.238
                 -37.067
   7    3    1100.000      -5.984     -12.830     -15.161     -19.741
                 -38.722     -55.176     -36.388     -31.872     -34.820
                 -36.942
   8    3    1150.000      -6.042     -12.912     -15.002     -19.688
                 -37.605     -53.935     -34.711     -29.971     -34.442
                 -36.832




               THERMODYNAMIC EQUILIBRIUM PROPERTIES AT ASSIGNED

                           TEMPERATURE AND PRESSURE

 CASE = saturn         

             REACTANT                       MOLES         ENERGY      TEMP
                                                         KJ/KG-MOL      K
 NAME        H2                           1.0000000         0.000      0.000
 NAME        He                           0.1350000         0.000      0.000
 NAME        N2                           0.0002270         0.000      0.000
 NAME        H2S                          0.0003760         0.000      0.000
 NAME        O2                           0.0049000         0.000      0.000
 NAME        HF                           0.0000007         0.000      0.000
 NAME        Mg                           0.0007960         0.000      0.000
 NAME        Si                           0.0006470         0.000      0.000
 NAME        HCL                          0.0000063         0.000      0.000
 NAME        HBr                          0.0000000         0.000      0.000

 O/F=    0.00000  %FUEL=  0.000000  R,EQ.RATIO=*********  PHI,EQ.RATIO= 0.000000

 THERMODYNAMIC PROPERTIES

 P, BAR            369.74   369.74   369.74   369.74   369.74   369.74   369.74   369.74
 T, K              800.00   850.00   900.00   950.00  1000.00  1050.00  1100.00  1150.00
 RHO, KG/CU M    1.3564 1 1.2766 1 1.2057 1 1.1422 1 1.0851 1 1.0334 1 9.8644 0 9.4354 0
 H, KJ/KG         4761.70  5351.36  5943.34  6538.11  7135.89  7737.02  8341.60  8949.91
 U, KJ/KG         2035.81  2455.10  2876.71  3301.10  3728.49  4159.23  4593.39  5031.26
 G, KJ/KG        -32243.4 -34574.3 -36939.9 -39338.5 -41768.5 -44228.5 -46717.2 -49233.5
 S, KJ/(KG)(K)    46.2564  46.9713  47.6481  48.2912  48.9044  49.4910  50.0535  50.5943

 M, (1/n)           2.440    2.440    2.440    2.440    2.440    2.440    2.440    2.440
 MW, MOL WT         2.439    2.439    2.439    2.439    2.439    2.439    2.439    2.439
 (dLV/dLP)t      -1.00000 -1.00000 -1.00000 -1.00001 -1.00002 -1.00003 -1.00005 -1.00007
 (dLV/dLT)p        1.0000   1.0000   1.0000   1.0001   1.0001   1.0002   1.0003   1.0004
 Cp, KJ/(KG)(K)   11.7720  11.8154  11.8650  11.9224  11.9908  12.0559  12.1280  12.2049
 GAMMAs            1.4074   1.4053   1.4029   1.4002   1.3971   1.3942   1.3910   1.3876
 SON VEL,M/SEC     1958.7   2017.4   2074.2   2129.0   2181.8   2233.4   2283.3   2331.9

 MOLE FRACTIONS

 *Br             1.399-17 5.326-17 1.750-16 5.085-16 1.329-15 3.176-15 7.018-15 1.449-14
 *CL             9.293-19 6.368-18 3.532-17 1.640-16 6.541-16 2.291-15 7.170-15 2.034-14
 *H              1.408-13 9.960-13 5.682-12 2.704-11 1.103-10 3.943-10 1.257 -9 3.627 -9
 HBr             6.1014-9 6.1014-9 6.1014-9 6.1014-9 6.1013-9 6.1013-9 6.1012-9 6.1011-9
 HCL             5.5643-6 5.5643-6 5.5643-6 5.5643-6 5.5643-6 5.5642-6 5.5642-6 5.5641-6
 *HF             6.3919-7 6.3919-7 6.3919-7 6.3919-7 6.3919-7 6.3918-7 6.3918-7 6.3917-7
 *H2             8.7305-1 8.7305-1 8.7305-1 8.7305-1 8.7305-1 8.7306-1 8.7307-1 8.7308-1
 H2F2            1.719-13 1.429-13 1.216-13 1.055-13 9.303-14 8.319-14 7.529-14 6.884-14
 H2O             6.7881-3 6.7881-3 6.7881-3 6.7881-3 6.7881-3 6.7880-3 6.7879-3 6.7878-3
 H2S             3.3104-4 3.3104-4 3.3104-4 3.3104-4 3.3104-4 3.3104-4 3.3103-4 3.3103-4
 *He             1.1886-1 1.1886-1 1.1886-1 1.1886-1 1.1886-1 1.1886-1 1.1886-1 1.1885-1
 MgCL2           2.540-17 1.105-16 4.064-16 1.303-15 3.705-15 9.497-15 2.225-14 4.821-14
 Mg(OH)2         1.295-20 2.219-19 2.777-18 2.679-17 2.062-16 1.307-15 7.005-15 3.241-14
 NH2             5.185-17 4.291-16 2.807-15 1.503-14 6.765-14 2.616-13 8.835-13 2.642-12
 NH3             3.9933-4 3.9871-4 3.9737-4 3.9472-4 3.8993-4 3.8203-4 3.7014-4 3.5382-4
 *N2             1.9449-7 5.0308-7 1.1736-6 2.4985-6 4.8904-6 8.8388-6 1.4785-5 2.2938-5
 *OH             4.781-19 5.864-18 5.456-17 4.022-16 2.431-15 1.240-14 5.459-14 2.114-13
 *S              5.116-21 7.580-20 8.350-19 7.163-18 4.966-17 2.868-16 1.414-15 6.076-15
 SH              5.067-13 2.216-12 8.235-12 2.669-11 7.694-11 2.007-10 4.798-10 1.064 -9
 S2              8.827-17 4.288-16 1.754-15 6.202-15 1.937-14 5.438-14 1.391-13 3.284-13
 MgSiO3(I)       4.3846-4 4.3846-4 4.3846-4 0.0000 0 0.0000 0 0.0000 0 0.0000 0 0.0000 0
 MgSiO3(II)      0.0000 0 0.0000 0 0.0000 0 4.3845-4 4.3845-4 4.3845-4 4.3844-4 4.3844-4
 Mg2SiO4(cr)     1.3118-4 1.3118-4 1.3118-4 1.3118-4 1.3118-4 1.3118-4 1.3118-4 1.3118-4

  * THERMODYNAMIC PROPERTIES FITTED TO 20000.K

    PRODUCTS WHICH WERE CONSIDERED BUT WHOSE MOLE FRACTIONS
    WERE LESS THAN 1.000000E-15 FOR ALL ASSIGNED CONDITIONS

 BrCL            BrF             BrF3            BrF5            BrO            
 OBrO            BrOO            BrO3            Br2             BrBrO          
 BrOBr           CLF             CLF3            CLF5            CLO            
 CLO2            CL2             CL2O            *F              FO             
 FO2,FOO         FO2,OFO         F2              F2O             F2O2           
 FS2F            HNO             HNO2            HNO3            HOCL           
 HOF             HO2             HSO3F           H2O2            H2SO4          
 H3F3            H4F4            H5F5            H6F6            H7F7           
 *Mg             MgBr            MgBr2           MgCL            MgF            
 MgF2            MgH             MgN             *MgO            MgOH           
 MgS             Mg2             Mg2F4           *N              NF             
 NF2             NF3             *NH             NHF             NHF2           
 NH2F            NH2OH           *NO             NOCL            NOF            
 NOF3            NO2             NO2CL           NO2F            NO3            
 NO3F            N2F2            N2F4            N2H2            NH2NO2         
 N2H4            N2O             N2O3            N2O4            N2O5           
 N3              N3H             *O              *O2             O3             
 SCL             SCL2            SF              SF2             SF3            
 SF4             SF5             SF6             SN              SO             
 SOF2            SO2             SO2CL2          SO2FCL          SO2F2          
 SO3             S2CL2           S2F2            S2O             S3             
 S4              S5              S6              S7              S8             
 *Si             SiBr            SiBr2           SiBr3           SiBr4          
 SiCL            SiCL2           SiCL3           SiCL4           SiF            
 SiFCL           SiF2            SiF3            SiF4            SiH            
 SiHBr3          SiHCL           SiHCL3          SiHF            SiHF3          
 SiH2            SiH2Br2         SiH2CL2         SiH2F2          SiH3           
 SiH3Br          SiH3CL          SiH3F           SiH4            SiN            
 SiO             SiO2            SiS             SiS2            Si2            
 Si2F6           Si2N            Si3             Br2(cr)         Br2(L)         
 H2O(cr)         H2O(L)          H2SO4(L)        Mg(cr)          Mg(L)          
 MgBr2(cr)       MgBr2(L)        MgCL2(cr)       MgCL2(L)        MgF2(cr)       
 MgF2(L)         MgH2(b)         MgH2(L)         MgO(cr)         MgO(L)         
 Mg(OH)2(cr)     Mg(OH)2(L)      MgS(cr)         MgS(L)          MgSO4(II)      
 MgSO4(I)        MgSO4(L)        MgSiO3(III)     MgSiO3(L)       Mg2SiO4(L)     
 Mg3N2(cr)       NH4CL(II)       NH4CL(III)      NH4F(cr)        NH4F(L)        
 S(a)            S(b)            S(L)            SCL2(L)         S2CL2(L)       
 Si(cr)          Si(L)           SiO2(a-qz)      SiO2(b-qz)      SiO2(b-crt)    
 SiO2(L)         SiS(cr)         SiS(L)          SiS2(cr)        SiS2(L)        
 Si2N2O(cr)      Si3N4(cr)      






 POINT ITN      T            H           HE          N           S 
                    O           F           MG          SI          CL
                    BR
   1    3    1200.000      -6.099     -12.992     -14.878     -19.644
                 -36.583     -52.800     -33.184     -28.236     -34.099
                 -36.735
   2    3    1250.000      -6.154     -13.069     -14.784     -19.606
                 -35.646     -51.760     -31.788     -26.646     -33.787
                 -36.649

 SINGULAR MATRIX, ITERATION  1  VARIABLE 10(EQLBRM)
   3   18     800.000      -5.496     -12.080     -17.034     -20.322
                 -48.447     -65.895     -51.181     -48.630     -38.105
                 -37.224
   4    3     850.000      -5.565     -12.176     -16.628     -20.183
                 -46.339     -63.546     -47.953     -44.964     -37.358
                 -37.671
   5    2     900.000      -5.631     -12.271     -16.272     -20.064
                 -44.470     -61.464     -45.100     -41.723     -36.700
                 -37.456
 PHASE CHANGE, REPLACE  MgSiO3(I)      WITH  MgSiO3(II)     
   6    2     950.000      -5.696     -12.362     -15.959     -19.963
                 -42.801     -59.606     -42.558     -38.849     -36.118
                 -37.268
   7    2    1000.000      -5.759     -12.451     -15.684     -19.877
                 -41.302     -57.939     -40.283     -36.278     -35.599
                 -37.105
   8    3    1050.000      -5.820     -12.538     -15.445     -19.804
                 -39.949     -56.435     -38.236     -33.965     -35.134
                 -36.963




               THERMODYNAMIC EQUILIBRIUM PROPERTIES AT ASSIGNED

                           TEMPERATURE AND PRESSURE

 CASE = saturn         

             REACTANT                       MOLES         ENERGY      TEMP
                                                         KJ/KG-MOL      K
 NAME        H2                           1.0000000         0.000      0.000
 NAME        He                           0.1350000         0.000      0.000
 NAME        N2                           0.0002270         0.000      0.000
 NAME        H2S                          0.0003760         0.000      0.000
 NAME        O2                           0.0049000         0.000      0.000
 NAME        HF                           0.0000007         0.000      0.000
 NAME        Mg                           0.0007960         0.000      0.000
 NAME        Si                           0.0006470         0.000      0.000
 NAME        HCL                          0.0000063         0.000      0.000
 NAME        HBr                          0.0000000         0.000      0.000

 O/F=    0.00000  %FUEL=  0.000000  R,EQ.RATIO=*********  PHI,EQ.RATIO= 0.000000

 THERMODYNAMIC PROPERTIES

 P, BAR            369.74   369.74   455.55   455.55   455.55   455.55   455.55   455.55
 T, K             1200.00  1250.00   800.00   850.00   900.00   950.00  1000.00  1050.00
 RHO, KG/CU M    9.0421 0 8.6802 0 1.6712 1 1.5729 1 1.4855 1 1.4073 1 1.3369 1 1.2733 1
 H, KJ/KG         9562.14  10178.4  4761.70  5351.36  5943.33  6538.08  7135.82  7736.89
 U, KJ/KG         5473.03  5918.81  2035.81  2455.10  2876.69  3301.07  3728.43  4159.12
 G, KJ/KG        -51776.3 -54344.8 -31674.5 -33969.8 -36299.9 -38663.0 -41057.4 -43481.8
 S, KJ/(KG)(K)    51.1154  51.6185  45.5453  46.2602  46.9369  47.5800  48.1932  48.7797

 M, (1/n)           2.440    2.440    2.440    2.440    2.440    2.440    2.440    2.440
 MW, MOL WT         2.439    2.439    2.439    2.439    2.439    2.439    2.439    2.439
 (dLV/dLP)t      -1.00009 -1.00011 -1.00000 -1.00000 -1.00000 -1.00001 -1.00001 -1.00002
 (dLV/dLT)p        1.0005   1.0006   1.0000   1.0000   1.0000   1.0000   1.0001   1.0001
 Cp, KJ/(KG)(K)   12.2847  12.3659  11.7719  11.8153  11.8647  11.9219  11.9899  12.0545
 GAMMAs            1.3842   1.3808   1.4074   1.4053   1.4029   1.4002   1.3971   1.3942
 SON VEL,M/SEC     2379.1   2425.2   1958.7   2017.4   2074.2   2129.0   2181.8   2233.4

 MOLE FRACTIONS

 *Br             2.820-14 5.207-14 2.532-17 4.799-17 1.577-16 4.581-16 1.198-15 2.861-15
 *CL             5.297-14 1.279-13 8.372-19 5.737-18 3.182-17 1.477-16 5.893-16 2.064-15
 *H              9.595 -9 2.350 -8 1.269-13 8.973-13 5.119-12 2.436-11 9.939-11 3.552-10
 HBr             6.1010-9 6.1009-9 1.2253-8 6.1024-9 6.1014-9 6.1014-9 6.1014-9 6.1013-9
 HCL             5.5640-6 5.5638-6 5.5643-6 5.5643-6 5.5643-6 5.5643-6 5.5643-6 5.5643-6
 *HF             6.3915-7 6.3914-7 6.3930-7 6.3919-7 6.3919-7 6.3919-7 6.3919-7 6.3919-7
 *H2             8.7309-1 8.7310-1 8.7305-1 8.7305-1 8.7305-1 8.7305-1 8.7305-1 8.7305-1
 H2F2            6.351-14 5.905-14 2.119-13 1.761-13 1.498-13 1.300-13 1.146-13 1.025-13
 H2O             6.7877-3 6.7875-3 6.7881-3 6.7881-3 6.7881-3 6.7881-3 6.7881-3 6.7881-3
 H2S             3.3102-4 3.3101-4 3.3104-4 3.3104-4 3.3104-4 3.3104-4 3.3104-4 3.3104-4
 *He             1.1885-1 1.1885-1 1.1886-1 1.1886-1 1.1886-1 1.1886-1 1.1886-1 1.1886-1
 *Mg             1.196-15 9.407-15 4.617-27 4.712-25 2.852-23 1.118-21 3.017-20 5.910-19
 MgCL2           9.755-14 1.858-13 2.540-17 1.105-16 4.064-16 1.303-15 3.705-15 9.497-15
 Mg(OH)2         1.319-13 4.790-13 1.295-20 2.219-19 2.777-18 2.679-17 2.062-16 1.307-15
 NH2             7.083-12 1.724-11 4.673-17 3.870-16 2.534-15 1.359-14 6.145-14 2.392-13
 NH3             3.3342-4 3.0996-4 3.9946-4 3.9905-4 3.9816-4 3.9640-4 3.9317-4 3.8772-4
 *N2             3.3136-5 4.4860-5 1.2821-7 3.3197-7 7.7623-7 1.6599-6 3.2752-6 5.9972-6
 *OH             7.322-13 2.297-12 4.307-19 5.283-18 4.916-17 3.623-16 2.190-15 1.117-14
 *S              2.314-14 7.924-14 4.152-21 6.152-20 6.777-19 5.814-18 4.031-17 2.328-16
 SH              2.208 -9 4.323 -9 4.565-13 1.996-12 7.419-12 2.404-11 6.931-11 1.808-10
 SO              3.125-15 9.597-15 2.277-21 2.622-20 2.312-19 1.627-18 9.455-18 4.658-17
 S2              7.220-13 1.491-12 7.165-17 3.480-16 1.423-15 5.034-15 1.572-14 4.413-14
 SiH3F           2.043-15 7.061-15 3.966-22 6.499-21 7.737-20 6.980-19 5.020-18 2.978-17
 SiH4            5.273-15 3.112-14 1.220-24 6.595-23 2.265-21 5.262-20 8.855-19 1.132-17
 SiO             5.243-15 5.009-14 1.906-27 2.981-25 2.637-23 1.431-21 5.171-20 1.320-18
 SiS             5.937-16 5.326-15 4.522-28 6.233-26 4.923-24 2.411-22 7.936-21 1.860-19
 MgSiO3(I)       0.0000 0 0.0000 0 4.3846-4 4.3846-4 4.3846-4 0.0000 0 0.0000 0 0.0000 0
 MgSiO3(II)      4.3843-4 4.3842-4 0.0000 0 0.0000 0 0.0000 0 4.3845-4 4.3845-4 4.3845-4
 Mg2SiO4(cr)     1.3118-4 1.3117-4 1.3118-4 1.3118-4 1.3118-4 1.3118-4 1.3118-4 1.3118-4

  * THERMODYNAMIC PROPERTIES FITTED TO 20000.K

    PRODUCTS WHICH WERE CONSIDERED BUT WHOSE MOLE FRACTIONS
    WERE LESS THAN 1.000000E-15 FOR ALL ASSIGNED CONDITIONS

 BrCL            BrF             BrF3            BrF5            BrO            
 OBrO            BrOO            BrO3            Br2             BrBrO          
 BrOBr           CLF             CLF3            CLF5            CLO            
 CLO2            CL2             CL2O            *F              FO             
 FO2,FOO         FO2,OFO         F2              F2O             F2O2           
 FS2F            HNO             HNO2            HNO3            HOCL           
 HOF             HO2             HSO3F           H2O2            H2SO4          
 H3F3            H4F4            H5F5            H6F6            H7F7           
 MgBr            MgBr2           MgCL            MgF             MgF2           
 MgH             MgN             *MgO            MgOH            MgS            
 Mg2             Mg2F4           *N              NF              NF2            
 NF3             *NH             NHF             NHF2            NH2F           
 NH2OH           *NO             NOCL            NOF             NOF3           
 NO2             NO2CL           NO2F            NO3             NO3F           
 N2F2            N2F4            N2H2            NH2NO2          N2H4           
 N2O             N2O3            N2O4            N2O5            N3             
 N3H             *O              *O2             O3              SCL            
 SCL2            SF              SF2             SF3             SF4            
 SF5             SF6             SN              SOF2            SO2            
 SO2CL2          SO2FCL          SO2F2           SO3             S2CL2          
 S2F2            S2O             S3              S4              S5             
 S6              S7              S8              *Si             SiBr           
 SiBr2           SiBr3           SiBr4           SiCL            SiCL2          
 SiCL3           SiCL4           SiF             SiFCL           SiF2           
 SiF3            SiF4            SiH             SiHBr3          SiHCL          
 SiHCL3          SiHF            SiHF3           SiH2            SiH2Br2        
 SiH2CL2         SiH2F2          SiH3            SiH3Br          SiH3CL         
 SiN             SiO2            SiS2            Si2             Si2F6          
 Si2N            Si3             Br2(cr)         Br2(L)          H2O(cr)        
 H2O(L)          H2SO4(L)        Mg(cr)          Mg(L)           MgBr2(cr)      
 MgBr2(L)        MgCL2(cr)       MgCL2(L)        MgF2(cr)        MgF2(L)        
 MgH2(b)         MgH2(L)         MgO(cr)         MgO(L)          Mg(OH)2(cr)    
 Mg(OH)2(L)      MgS(cr)         MgS(L)          MgSO4(II)       MgSO4(I)       
 MgSO4(L)        MgSiO3(III)     MgSiO3(L)       Mg2SiO4(L)      Mg3N2(cr)      
 NH4CL(II)       NH4CL(III)      NH4F(cr)        NH4F(L)         S(a)           
 S(b)            S(L)            SCL2(L)         S2CL2(L)        Si(cr)         
 Si(L)           SiO2(a-qz)      SiO2(b-qz)      SiO2(b-crt)     SiO2(L)        
 SiS(cr)         SiS(L)          SiS2(cr)        SiS2(L)         Si2N2O(cr)     
 Si3N4(cr)      






 POINT ITN      T            H           HE          N           S 
                    O           F           MG          SI          CL
                    BR
   1    3    1100.000      -5.880     -12.622     -15.241     -19.741
                 -38.722     -55.071     -36.388     -31.872     -34.715
                 -36.838
   2    3    1150.000      -5.938     -12.703     -15.069     -19.688
                 -37.605     -53.830     -34.711     -29.971     -34.337
                 -36.728
   3    3    1200.000      -5.995     -12.783     -14.930     -19.644
                 -36.583     -52.696     -33.184     -28.236     -33.994
                 -36.631
   4    3    1250.000      -6.050     -12.860     -14.820     -19.606
                 -35.646     -51.655     -31.788     -26.646     -33.683
                 -36.545

 SINGULAR MATRIX, ITERATION  1  VARIABLE 10(EQLBRM)
   5   18     800.000      -5.398     -11.882     -17.132     -20.322
                 -48.447     -65.796     -51.181     -48.630     -38.006
                 -37.112
   6    3     850.000      -5.466     -11.979     -16.726     -20.183
                 -46.339     -63.447     -47.953     -44.964     -37.259
                 -37.573
   7    2     900.000      -5.532     -12.073     -16.369     -20.064
                 -44.470     -61.365     -45.100     -41.723     -36.602
                 -37.357
 PHASE CHANGE, REPLACE  MgSiO3(I)      WITH  MgSiO3(II)     
   8    2     950.000      -5.597     -12.165     -16.055     -19.963
                 -42.801     -59.507     -42.558     -38.849     -36.019
                 -37.170




               THERMODYNAMIC EQUILIBRIUM PROPERTIES AT ASSIGNED

                           TEMPERATURE AND PRESSURE

 CASE = saturn         

             REACTANT                       MOLES         ENERGY      TEMP
                                                         KJ/KG-MOL      K
 NAME        H2                           1.0000000         0.000      0.000
 NAME        He                           0.1350000         0.000      0.000
 NAME        N2                           0.0002270         0.000      0.000
 NAME        H2S                          0.0003760         0.000      0.000
 NAME        O2                           0.0049000         0.000      0.000
 NAME        HF                           0.0000007         0.000      0.000
 NAME        Mg                           0.0007960         0.000      0.000
 NAME        Si                           0.0006470         0.000      0.000
 NAME        HCL                          0.0000063         0.000      0.000
 NAME        HBr                          0.0000000         0.000      0.000

 O/F=    0.00000  %FUEL=  0.000000  R,EQ.RATIO=*********  PHI,EQ.RATIO= 0.000000

 THERMODYNAMIC PROPERTIES

 P, BAR            455.55   455.55   455.55   455.55   555.05   555.05   555.05   555.05
 T, K             1100.00  1150.00  1200.00  1250.00   800.00   850.00   900.00   950.00
 RHO, KG/CU M    1.2154 1 1.1625 1 1.1141 1 1.0695 1 2.0362 1 1.9164 1 1.8100 1 1.7147 1
 H, KJ/KG         8341.39  8949.60  9561.73  10177.9  4761.70  5351.35  5943.31  6538.05
 U, KJ/KG         4593.21  5031.01  5472.70  5918.40  2035.81  2455.09  2876.69  3301.05
 G, KJ/KG        -45935.0 -48415.7 -50922.9 -53455.8 -31136.0 -33397.7 -35694.1 -38023.5
 S, KJ/(KG)(K)    49.3421  49.8829  50.4039  50.9069  44.8721  45.5871  46.2638  46.9069

 M, (1/n)           2.440    2.440    2.440    2.440    2.440    2.440    2.440    2.440
 MW, MOL WT         2.439    2.439    2.439    2.439    2.439    2.439    2.439    2.439
 (dLV/dLP)t      -1.00004 -1.00006 -1.00008 -1.00010 -1.00000 -1.00000 -1.00000 -1.00000
 (dLV/dLT)p        1.0002   1.0003   1.0004   1.0005   1.0000   1.0000   1.0000   1.0000
 Cp, KJ/(KG)(K)   12.1262  12.2029  12.2827  12.3641  11.7719  11.8152  11.8645  11.9216
 GAMMAs            1.3910   1.3877   1.3842   1.3808   1.4074   1.4053   1.4029   1.4002
 SON VEL,M/SEC     2283.3   2331.9   2379.1   2425.2   1958.7   2017.4   2074.2   2129.0

 MOLE FRACTIONS

 *Br             6.323-15 1.306-14 2.540-14 4.691-14 2.324-17 4.347-17 1.429-16 4.150-16
 *CL             6.459-15 1.833-14 4.773-14 1.152-13 7.584-19 5.197-18 2.883-17 1.338-16
 *H              1.132 -9 3.268 -9 8.644 -9 2.117 -8 1.149-13 8.129-13 4.638-12 2.207-11
 HBr             6.1013-9 6.1012-9 6.1011-9 6.1010-9 1.2418-8 6.1025-9 6.1014-9 6.1014-9
 HCL             5.5642-6 5.5642-6 5.5641-6 5.5640-6 5.5643-6 5.5643-6 5.5643-6 5.5643-6
 *HF             6.3918-7 6.3917-7 6.3916-7 6.3915-7 6.3929-7 6.3919-7 6.3919-7 6.3919-7
 *H2             8.7306-1 8.7307-1 8.7308-1 8.7309-1 8.7305-1 8.7305-1 8.7305-1 8.7305-1
 H2F2            9.276-14 8.482-14 7.825-14 7.276-14 2.581-13 2.146-13 1.826-13 1.584-13
 H2O             6.7880-3 6.7879-3 6.7878-3 6.7877-3 6.7881-3 6.7881-3 6.7881-3 6.7881-3
 H2S             3.3104-4 3.3103-4 3.3103-4 3.3102-4 3.3104-4 3.3104-4 3.3104-4 3.3104-4
 *He             1.1886-1 1.1885-1 1.1885-1 1.1885-1 1.1886-1 1.1886-1 1.1886-1 1.1886-1
 *Mg             8.780-18 1.026-16 9.707-16 7.635-15 3.789-27 3.867-25 2.341-23 9.176-22
 MgCL2           2.225-14 4.821-14 9.755-14 1.858-13 2.540-17 1.105-16 4.064-16 1.303-15
 Mg(OH)2         7.005-15 3.241-14 1.319-13 4.791-13 1.295-20 2.219-19 2.777-18 2.679-17
 NH2             8.156-13 2.470-12 6.723-12 1.663-11 4.234-17 3.507-16 2.298-15 1.235-14
 NH3             3.7926-4 3.6716-4 3.5125-4 3.3192-4 3.9954-4 3.9927-4 3.9867-4 3.9747-4
 *N2             1.0226-5 1.6271-5 2.4226-5 3.3887-5 8.6397-8 2.2386-7 5.2420-7 1.1242-6
 *OH             4.918-14 1.905-13 6.597-13 2.070-12 3.902-19 4.786-18 4.453-17 3.282-16
 *S              1.148-15 4.932-15 1.878-14 6.431-14 3.408-21 5.049-20 5.562-19 4.771-18
 SH              4.323-10 9.586-10 1.989 -9 3.895 -9 4.135-13 1.808-12 6.721-12 2.178-11
 SO              1.989-16 7.502-16 2.537-15 7.790-15 1.869-21 2.152-20 1.897-19 1.336-18
 S2              1.129-13 2.665-13 5.861-13 1.210-12 5.880-17 2.856-16 1.168-15 4.131-15
 SiH3F           1.498-16 6.533-16 2.517-15 8.699-15 4.832-22 7.919-21 9.427-20 8.505-19
 SiH4            1.144-16 9.421-16 6.496-15 3.834-14 1.486-24 8.036-23 2.759-21 6.411-20
 SiO             2.500-17 3.652-16 4.255-15 4.065-14 1.564-27 2.447-25 2.165-23 1.175-21
 SiS             3.256-18 4.424-17 4.818-16 4.323-15 3.711-28 5.116-26 4.040-24 1.979-22
 MgSiO3(I)       0.0000 0 0.0000 0 0.0000 0 0.0000 0 4.3846-4 4.3846-4 4.3846-4 0.0000 0
 MgSiO3(II)      4.3845-4 4.3844-4 4.3843-4 4.3843-4 0.0000 0 0.0000 0 0.0000 0 4.3846-4
 Mg2SiO4(cr)     1.3118-4 1.3118-4 1.3118-4 1.3118-4 1.3118-4 1.3118-4 1.3118-4 1.3118-4

  * THERMODYNAMIC PROPERTIES FITTED TO 20000.K

    PRODUCTS WHICH WERE CONSIDERED BUT WHOSE MOLE FRACTIONS
    WERE LESS THAN 1.000000E-15 FOR ALL ASSIGNED CONDITIONS

 BrCL            BrF             BrF3            BrF5            BrO            
 OBrO            BrOO            BrO3            Br2             BrBrO          
 BrOBr           CLF             CLF3            CLF5            CLO            
 CLO2            CL2             CL2O            *F              FO             
 FO2,FOO         FO2,OFO         F2              F2O             F2O2           
 FS2F            HNO             HNO2            HNO3            HOCL           
 HOF             HO2             HSO3F           H2O2            H2SO4          
 H3F3            H4F4            H5F5            H6F6            H7F7           
 MgBr            MgBr2           MgCL            MgF             MgF2           
 MgH             MgN             *MgO            MgOH            MgS            
 Mg2             Mg2F4           *N              NF              NF2            
 NF3             *NH             NHF             NHF2            NH2F           
 NH2OH           *NO             NOCL            NOF             NOF3           
 NO2             NO2CL           NO2F            NO3             NO3F           
 N2F2            N2F4            N2H2            NH2NO2          N2H4           
 N2O             N2O3            N2O4            N2O5            N3             
 N3H             *O              *O2             O3              SCL            
 SCL2            SF              SF2             SF3             SF4            
 SF5             SF6             SN              SOF2            SO2            
 SO2CL2          SO2FCL          SO2F2           SO3             S2CL2          
 S2F2            S2O             S3              S4              S5             
 S6              S7              S8              *Si             SiBr           
 SiBr2           SiBr3           SiBr4           SiCL            SiCL2          
 SiCL3           SiCL4           SiF             SiFCL           SiF2           
 SiF3            SiF4            SiH             SiHBr3          SiHCL          
 SiHCL3          SiHF            SiHF3           SiH2            SiH2Br2        
 SiH2CL2         SiH2F2          SiH3            SiH3Br          SiH3CL         
 SiN             SiO2            SiS2            Si2             Si2F6          
 Si2N            Si3             Br2(cr)         Br2(L)          H2O(cr)        
 H2O(L)          H2SO4(L)        Mg(cr)          Mg(L)           MgBr2(cr)      
 MgBr2(L)        MgCL2(cr)       MgCL2(L)        MgF2(cr)        MgF2(L)        
 MgH2(b)         MgH2(L)         MgO(cr)         MgO(L)          Mg(OH)2(cr)    
 Mg(OH)2(L)      MgS(cr)         MgS(L)          MgSO4(II)       MgSO4(I)       
 MgSO4(L)        MgSiO3(III)     MgSiO3(L)       Mg2SiO4(L)      Mg3N2(cr)      
 NH4CL(II)       NH4CL(III)      NH4F(cr)        NH4F(L)         S(a)           
 S(b)            S(L)            SCL2(L)         S2CL2(L)        Si(cr)         
 Si(L)           SiO2(a-qz)      SiO2(b-qz)      SiO2(b-crt)     SiO2(L)        
 SiS(cr)         SiS(L)          SiS2(cr)        SiS2(L)         Si2N2O(cr)     
 Si3N4(cr)      






 POINT ITN      T            H           HE          N           S 
                    O           F           MG          SI          CL
                    BR
   1    2    1000.000      -5.660     -12.254     -15.778     -19.877
                 -41.302     -57.840     -40.283     -36.278     -35.500
                 -37.007
   2    2    1050.000      -5.721     -12.340     -15.535     -19.804
                 -39.949     -56.336     -38.236     -33.965     -35.035
                 -36.864
   3    3    1100.000      -5.781     -12.424     -15.323     -19.741
                 -38.722     -54.973     -36.388     -31.872     -34.616
                 -36.739
   4    3    1150.000      -5.839     -12.506     -15.143     -19.688
                 -37.605     -53.731     -34.711     -29.971     -34.238
                 -36.629
   5    3    1200.000      -5.896     -12.585     -14.991     -19.644
                 -36.583     -52.597     -33.184     -28.236     -33.896
                 -36.532
   6    3    1250.000      -5.951     -12.663     -14.868     -19.606
                 -35.646     -51.556     -31.788     -26.646     -33.584
                 -36.446

 SINGULAR MATRIX, ITERATION  1  VARIABLE 10(EQLBRM)
   7   18     800.000      -5.304     -11.694     -17.226     -20.322
                 -48.447     -65.702     -51.181     -48.630     -37.912
                 -37.006
   8    3     850.000      -5.372     -11.791     -16.820     -20.183
                 -46.339     -63.353     -47.953     -44.964     -37.165
                 -37.479




               THERMODYNAMIC EQUILIBRIUM PROPERTIES AT ASSIGNED

                           TEMPERATURE AND PRESSURE

 CASE = saturn         

             REACTANT                       MOLES         ENERGY      TEMP
                                                         KJ/KG-MOL      K
 NAME        H2                           1.0000000         0.000      0.000
 NAME        He                           0.1350000         0.000      0.000
 NAME        N2                           0.0002270         0.000      0.000
 NAME        H2S                          0.0003760         0.000      0.000
 NAME        O2                           0.0049000         0.000      0.000
 NAME        HF                           0.0000007         0.000      0.000
 NAME        Mg                           0.0007960         0.000      0.000
 NAME        Si                           0.0006470         0.000      0.000
 NAME        HCL                          0.0000063         0.000      0.000
 NAME        HBr                          0.0000000         0.000      0.000

 O/F=    0.00000  %FUEL=  0.000000  R,EQ.RATIO=*********  PHI,EQ.RATIO= 0.000000

 THERMODYNAMIC PROPERTIES

 P, BAR            555.05   555.05   555.05   555.05   555.05   555.05   669.65   669.65
 T, K             1000.00  1050.00  1100.00  1150.00  1200.00  1250.00   800.00   850.00
 RHO, KG/CU M    1.6290 1 1.5514 1 1.4809 1 1.4165 1 1.3574 1 1.3031 1 2.4566 1 2.3121 1
 H, KJ/KG         7135.77  7736.81  8341.25  8949.38  9561.43  10177.5  4761.70  5351.35
 U, KJ/KG         3728.39  4159.05  4593.10  5030.83  5472.45  5918.08  2035.81  2455.09
 G, KJ/KG        -40384.3 -42775.0 -45194.5 -47641.6 -50115.1 -52614.3 -30624.4 -32854.0
 S, KJ/(KG)(K)    47.5200  48.1065  48.6689  49.2095  49.7305  50.2334  44.2326  44.9475

 M, (1/n)           2.440    2.440    2.440    2.440    2.440    2.440    2.440    2.440
 MW, MOL WT         2.439    2.439    2.439    2.439    2.439    2.439    2.439    2.439
 (dLV/dLP)t      -1.00001 -1.00002 -1.00003 -1.00004 -1.00006 -1.00008 -1.00000 -1.00000
 (dLV/dLT)p        1.0001   1.0001   1.0002   1.0002   1.0003   1.0004   1.0000   1.0000
 Cp, KJ/(KG)(K)   11.9893  12.0536  12.1249  12.2012  12.2808  12.3623  11.7718  11.8151
 GAMMAs            1.3971   1.3942   1.3910   1.3877   1.3843   1.3808   1.4074   1.4053
 SON VEL,M/SEC     2181.8   2233.4   2283.3   2331.9   2379.1   2425.2   1958.7   2017.4

 MOLE FRACTIONS

 *Br             1.085-15 2.592-15 5.728-15 1.183-14 2.301-14 4.250-14 2.144-17 3.958-17
 *CL             5.339-16 1.870-15 5.852-15 1.660-14 4.324-14 1.044-13 6.905-19 4.732-18
 *H              9.004-11 3.218-10 1.026 -9 2.961 -9 7.831 -9 1.918 -8 1.046-13 7.401-13
 HBr             6.1014-9 6.1014-9 6.1013-9 6.1013-9 6.1012-9 6.1011-9 1.2579-8 6.1027-9
 HCL             5.5643-6 5.5643-6 5.5643-6 5.5642-6 5.5641-6 5.5641-6 5.5643-6 5.5643-6
 *HF             6.3919-7 6.3919-7 6.3919-7 6.3918-7 6.3917-7 6.3916-7 6.3928-7 6.3919-7
 *H2             8.7305-1 8.7305-1 8.7306-1 8.7306-1 8.7307-1 8.7308-1 8.7305-1 8.7305-1
 H2F2            1.397-13 1.249-13 1.130-13 1.033-13 9.534-14 8.866-14 3.114-13 2.589-13
 H2O             6.7881-3 6.7881-3 6.7881-3 6.7880-3 6.7879-3 6.7878-3 6.7881-3 6.7881-3
 H2S             3.3104-4 3.3104-4 3.3104-4 3.3103-4 3.3103-4 3.3102-4 3.3104-4 3.3104-4
 *He             1.1886-1 1.1886-1 1.1886-1 1.1886-1 1.1885-1 1.1885-1 1.1886-1 1.1886-1
 *Mg             2.476-20 4.851-19 7.206-18 8.418-17 7.967-16 6.266-15 3.141-27 3.205-25
 MgCL2           3.705-15 9.497-15 2.225-14 4.821-14 9.755-14 1.858-13 2.540-17 1.105-16
 Mg(OH)2         2.062-16 1.307-15 7.005-15 3.241-14 1.319-13 4.791-13 1.295-20 2.219-19
 NH2             5.597-14 2.188-13 7.510-13 2.295-12 6.321-12 1.585-11 3.855-17 3.194-16
 NH3             3.9526-4 3.9148-4 3.8548-4 3.7664-4 3.6455-4 3.4917-4 3.9960-4 3.9941-4
 *N2             2.2298-6 4.1186-6 7.1159-6 1.1534-5 1.7579-5 2.5263-5 5.9373-8 1.5391-7
 *OH             1.984-15 1.012-14 4.455-14 1.726-13 5.976-13 1.875-12 3.553-19 4.358-18
 *S              3.308-17 1.911-16 9.421-16 4.048-15 1.541-14 5.279-14 2.825-21 4.185-20
 SH              6.279-11 1.638-10 3.916-10 8.684-10 1.802 -9 3.529 -9 3.765-13 1.646-12
 SO              7.760-18 3.823-17 1.633-16 6.158-16 2.082-15 6.394-15 1.549-21 1.783-20
 S2              1.290-14 3.622-14 9.269-14 2.188-13 4.810-13 9.935-13 4.874-17 2.368-16
 SiH2F2          1.540-17 4.185-17 1.036-16 2.367-16 5.046-16 1.013-15 9.026-20 4.391-19
 SiH3F           6.116-18 3.628-17 1.825-16 7.959-16 3.066-15 1.060-14 5.829-22 9.554-21
 SiH4            1.079-18 1.380-17 1.394-16 1.148-15 7.915-15 4.671-14 1.793-24 9.695-23
 SiO             4.244-20 1.084-18 2.052-17 2.997-16 3.493-15 3.336-14 1.297-27 2.028-25
 SiS             6.513-21 1.527-19 2.673-18 3.631-17 3.955-16 3.548-15 3.076-28 4.240-26
 MgSiO3(I)       0.0000 0 0.0000 0 0.0000 0 0.0000 0 0.0000 0 0.0000 0 4.3846-4 4.3846-4
 MgSiO3(II)      4.3845-4 4.3845-4 4.3845-4 4.3845-4 4.3844-4 4.3843-4 0.0000 0 0.0000 0
 Mg2SiO4(cr)     1.3118-4 1.3118-4 1.3118-4 1.3118-4 1.3118-4 1.3118-4 1.3118-4 1.3118-4

  * THERMODYNAMIC PROPERTIES FITTED TO 20000.K

    PRODUCTS WHICH WERE CONSIDERED BUT WHOSE MOLE FRACTIONS
    WERE LESS THAN 1.000000E-15 FOR ALL ASSIGNED CONDITIONS

 BrCL            BrF             BrF3            BrF5            BrO            
 OBrO            BrOO            BrO3            Br2             BrBrO          
 BrOBr           CLF             CLF3            CLF5            CLO            
 CLO2            CL2             CL2O            *F              FO             
 FO2,FOO         FO2,OFO         F2              F2O             F2O2           
 FS2F            HNO             HNO2            HNO3            HOCL           
 HOF             HO2             HSO3F           H2O2            H2SO4          
 H3F3            H4F4            H5F5            H6F6            H7F7           
 MgBr            MgBr2           MgCL            MgF             MgF2           
 MgH             MgN             *MgO            MgOH            MgS            
 Mg2             Mg2F4           *N              NF              NF2            
 NF3             *NH             NHF             NHF2            NH2F           
 NH2OH           *NO             NOCL            NOF             NOF3           
 NO2             NO2CL           NO2F            NO3             NO3F           
 N2F2            N2F4            N2H2            NH2NO2          N2H4           
 N2O             N2O3            N2O4            N2O5            N3             
 N3H             *O              *O2             O3              SCL            
 SCL2            SF              SF2             SF3             SF4            
 SF5             SF6             SN              SOF2            SO2            
 SO2CL2          SO2FCL          SO2F2           SO3             S2CL2          
 S2F2            S2O             S3              S4              S5             
 S6              S7              S8              *Si             SiBr           
 SiBr2           SiBr3           SiBr4           SiCL            SiCL2          
 SiCL3           SiCL4           SiF             SiFCL           SiF2           
 SiF3            SiF4            SiH             SiHBr3          SiHCL          
 SiHCL3          SiHF            SiHF3           SiH2            SiH2Br2        
 SiH2CL2         SiH3            SiH3Br          SiH3CL          SiN            
 SiO2            SiS2            Si2             Si2F6           Si2N           
 Si3             Br2(cr)         Br2(L)          H2O(cr)         H2O(L)         
 H2SO4(L)        Mg(cr)          Mg(L)           MgBr2(cr)       MgBr2(L)       
 MgCL2(cr)       MgCL2(L)        MgF2(cr)        MgF2(L)         MgH2(b)        
 MgH2(L)         MgO(cr)         MgO(L)          Mg(OH)2(cr)     Mg(OH)2(L)     
 MgS(cr)         MgS(L)          MgSO4(II)       MgSO4(I)        MgSO4(L)       
 MgSiO3(III)     MgSiO3(L)       Mg2SiO4(L)      Mg3N2(cr)       NH4CL(II)      
 NH4CL(III)      NH4F(cr)        NH4F(L)         S(a)            S(b)           
 S(L)            SCL2(L)         S2CL2(L)        Si(cr)          Si(L)          
 SiO2(a-qz)      SiO2(b-qz)      SiO2(b-crt)     SiO2(L)         SiS(cr)        
 SiS(L)          SiS2(cr)        SiS2(L)         Si2N2O(cr)      Si3N4(cr)      






 POINT ITN      T            H           HE          N           S 
                    O           F           MG          SI          CL
                    BR
   1    2     900.000      -5.438     -11.885     -16.462     -20.064
                 -44.470     -61.271     -45.100     -41.723     -36.508
                 -37.263
 PHASE CHANGE, REPLACE  MgSiO3(I)      WITH  MgSiO3(II)     
   2    2     950.000      -5.503     -11.977     -16.147     -19.963
                 -42.801     -59.413     -42.558     -38.849     -35.925
                 -37.076
   3    2    1000.000      -5.566     -12.066     -15.868     -19.877
                 -41.302     -57.746     -40.283     -36.278     -35.406
                 -36.913
   4    2    1050.000      -5.628     -12.152     -15.622     -19.804
                 -39.949     -56.242     -38.236     -33.965     -34.941
                 -36.770
   5    2    1100.000      -5.687     -12.237     -15.406     -19.741
                 -38.722     -54.879     -36.388     -31.872     -34.523
                 -36.645
   6    3    1150.000      -5.745     -12.318     -15.219     -19.688
                 -37.605     -53.638     -34.711     -29.971     -34.145
                 -36.535
   7    3    1200.000      -5.802     -12.398     -15.059     -19.644
                 -36.583     -52.503     -33.184     -28.236     -33.802
                 -36.438
   8    3    1250.000      -5.857     -12.475     -14.925     -19.606
                 -35.646     -51.463     -31.788     -26.646     -33.490
                 -36.352




               THERMODYNAMIC EQUILIBRIUM PROPERTIES AT ASSIGNED

                           TEMPERATURE AND PRESSURE

 CASE = saturn         

             REACTANT                       MOLES         ENERGY      TEMP
                                                         KJ/KG-MOL      K
 NAME        H2                           1.0000000         0.000      0.000
 NAME        He                           0.1350000         0.000      0.000
 NAME        N2                           0.0002270         0.000      0.000
 NAME        H2S                          0.0003760         0.000      0.000
 NAME        O2                           0.0049000         0.000      0.000
 NAME        HF                           0.0000007         0.000      0.000
 NAME        Mg                           0.0007960         0.000      0.000
 NAME        Si                           0.0006470         0.000      0.000
 NAME        HCL                          0.0000063         0.000      0.000
 NAME        HBr                          0.0000000         0.000      0.000

 O/F=    0.00000  %FUEL=  0.000000  R,EQ.RATIO=*********  PHI,EQ.RATIO= 0.000000

 THERMODYNAMIC PROPERTIES

 P, BAR            669.65   669.65   669.65   669.65   669.65   669.65   669.65   669.65
 T, K              900.00   950.00  1000.00  1050.00  1100.00  1150.00  1200.00  1250.00
 RHO, KG/CU M    2.1837 1 2.0687 1 1.9653 1 1.8717 1 1.7866 1 1.7089 1 1.6377 1 1.5722 1
 H, KJ/KG         5943.31  6538.04  7135.74  7736.75  8341.15  8949.23  9561.20  10177.2
 U, KJ/KG         2876.68  3301.04  3728.37  4159.00  4593.02  5030.70  5472.26  5917.83
 G, KJ/KG        -35118.5 -37415.9 -39744.7 -42103.5 -44491.0 -46906.1 -49347.6 -51814.8
 S, KJ/(KG)(K)    45.6242  46.2673  46.8804  47.4669  48.0292  48.5698  49.0907  49.5936

 M, (1/n)           2.440    2.440    2.440    2.440    2.440    2.440    2.440    2.440
 MW, MOL WT         2.439    2.439    2.439    2.439    2.439    2.439    2.439    2.439
 (dLV/dLP)t      -1.00000 -1.00000 -1.00001 -1.00001 -1.00002 -1.00003 -1.00004 -1.00006
 (dLV/dLT)p        1.0000   1.0000   1.0000   1.0001   1.0001   1.0002   1.0003   1.0003
 Cp, KJ/(KG)(K)   11.8644  11.9213  11.9889  12.0530  12.1240  12.2000  12.2793  12.3607
 GAMMAs            1.4029   1.4002   1.3971   1.3942   1.3910   1.3877   1.3843   1.3808
 SON VEL,M/SEC     2074.2   2129.0   2181.8   2233.4   2283.3   2331.9   2379.1   2425.2

 MOLE FRACTIONS

 *Br             1.301-16 3.778-16 9.878-16 2.360-15 5.215-15 1.077-14 2.095-14 3.869-14
 *CL             2.625-17 1.218-16 4.861-16 1.702-15 5.328-15 1.512-14 3.937-14 9.504-14
 *H              4.222-12 2.010-11 8.198-11 2.930-10 9.340-10 2.695 -9 7.129 -9 1.746 -8
 HBr             6.1014-9 6.1014-9 6.1014-9 6.1014-9 6.1013-9 6.1013-9 6.1013-9 6.1012-9
 HCL             5.5643-6 5.5643-6 5.5643-6 5.5643-6 5.5643-6 5.5643-6 5.5642-6 5.5641-6
 *HF             6.3919-7 6.3919-7 6.3919-7 6.3919-7 6.3919-7 6.3918-7 6.3918-7 6.3917-7
 *H2             8.7305-1 8.7305-1 8.7305-1 8.7305-1 8.7305-1 8.7306-1 8.7306-1 8.7307-1
 H2F2            2.203-13 1.911-13 1.685-13 1.507-13 1.364-13 1.247-13 1.150-13 1.070-13
 H2O             6.7881-3 6.7881-3 6.7881-3 6.7881-3 6.7881-3 6.7880-3 6.7880-3 6.7879-3
 H2S             3.3104-4 3.3104-4 3.3104-4 3.3104-4 3.3104-4 3.3104-4 3.3103-4 3.3103-4
 *He             1.1886-1 1.1886-1 1.1886-1 1.1886-1 1.1886-1 1.1886-1 1.1886-1 1.1885-1
 *Mg             1.940-23 7.605-22 2.052-20 4.020-19 5.973-18 6.977-17 6.603-16 5.193-15
 MgCL2           4.064-16 1.303-15 3.705-15 9.497-15 2.225-14 4.822-14 9.755-14 1.858-13
 Mg(OH)2         2.777-18 2.679-17 2.062-16 1.307-15 7.005-15 3.241-14 1.319-13 4.791-13
 NH2             2.094-15 1.126-14 5.113-14 2.005-13 6.912-13 2.127-12 5.908-12 1.497-11
 NH3             3.9900-4 3.9817-4 3.9663-4 3.9398-4 3.8972-4 3.8330-4 3.7425-4 3.6232-4
 *N2             3.6073-7 7.7505-7 1.5426-6 2.8659-6 4.9970-6 8.2068-6 1.2729-5 1.8689-5
 *OH             4.054-17 2.988-16 1.807-15 9.213-15 4.056-14 1.571-13 5.441-13 1.707-12
 *S              4.610-19 3.955-18 2.742-17 1.584-16 7.808-16 3.355-15 1.278-14 4.375-14
 SH              6.119-12 1.983-11 5.717-11 1.491-10 3.566-10 7.906-10 1.641 -9 3.213 -9
 SO              1.573-19 1.107-18 6.432-18 3.169-17 1.353-16 5.104-16 1.726-15 5.300-15
 S2              9.683-16 3.424-15 1.070-14 3.002-14 7.683-14 1.813-13 3.987-13 8.235-13
 SiH2F2          1.780-18 6.135-18 1.858-17 5.049-17 1.250-16 2.856-16 6.088-16 1.222-15
 SiH3F           1.137-19 1.026-18 7.379-18 4.377-17 2.202-16 9.602-16 3.699-15 1.279-14
 SiH4            3.329-21 7.735-20 1.302-18 1.665-17 1.681-16 1.385-15 9.549-15 5.635-14
 SiO             1.794-23 9.736-22 3.517-20 8.981-19 1.701-17 2.484-16 2.895-15 2.765-14
 SiS             3.349-24 1.640-22 5.399-21 1.266-19 2.215-18 3.009-17 3.278-16 2.940-15
 MgSiO3(I)       4.3846-4 0.0000 0 0.0000 0 0.0000 0 0.0000 0 0.0000 0 0.0000 0 0.0000 0
 MgSiO3(II)      0.0000 0 4.3846-4 4.3845-4 4.3845-4 4.3845-4 4.3845-4 4.3845-4 4.3844-4
 Mg2SiO4(cr)     1.3118-4 1.3118-4 1.3118-4 1.3118-4 1.3118-4 1.3118-4 1.3118-4 1.3118-4

  * THERMODYNAMIC PROPERTIES FITTED TO 20000.K

    PRODUCTS WHICH WERE CONSIDERED BUT WHOSE MOLE FRACTIONS
    WERE LESS THAN 1.000000E-15 FOR ALL ASSIGNED CONDITIONS

 BrCL            BrF             BrF3            BrF5            BrO            
 OBrO            BrOO            BrO3            Br2             BrBrO          
 BrOBr           CLF             CLF3            CLF5            CLO            
 CLO2            CL2             CL2O            *F              FO             
 FO2,FOO         FO2,OFO         F2              F2O             F2O2           
 FS2F            HNO             HNO2            HNO3            HOCL           
 HOF             HO2             HSO3F           H2O2            H2SO4          
 H3F3            H4F4            H5F5            H6F6            H7F7           
 MgBr            MgBr2           MgCL            MgF             MgF2           
 MgH             MgN             *MgO            MgOH            MgS            
 Mg2             Mg2F4           *N              NF              NF2            
 NF3             *NH             NHF             NHF2            NH2F           
 NH2OH           *NO             NOCL            NOF             NOF3           
 NO2             NO2CL           NO2F            NO3             NO3F           
 N2F2            N2F4            N2H2            NH2NO2          N2H4           
 N2O             N2O3            N2O4            N2O5            N3             
 N3H             *O              *O2             O3              SCL            
 SCL2            SF              SF2             SF3             SF4            
 SF5             SF6             SN              SOF2            SO2            
 SO2CL2          SO2FCL          SO2F2           SO3             S2CL2          
 S2F2            S2O             S3              S4              S5             
 S6              S7              S8              *Si             SiBr           
 SiBr2           SiBr3           SiBr4           SiCL            SiCL2          
 SiCL3           SiCL4           SiF             SiFCL           SiF2           
 SiF3            SiF4            SiH             SiHBr3          SiHCL          
 SiHCL3          SiHF            SiHF3           SiH2            SiH2Br2        
 SiH2CL2         SiH3            SiH3Br          SiH3CL          SiN            
 SiO2            SiS2            Si2             Si2F6           Si2N           
 Si3             Br2(cr)         Br2(L)          H2O(cr)         H2O(L)         
 H2SO4(L)        Mg(cr)          Mg(L)           MgBr2(cr)       MgBr2(L)       
 MgCL2(cr)       MgCL2(L)        MgF2(cr)        MgF2(L)         MgH2(b)        
 MgH2(L)         MgO(cr)         MgO(L)          Mg(OH)2(cr)     Mg(OH)2(L)     
 MgS(cr)         MgS(L)          MgSO4(II)       MgSO4(I)        MgSO4(L)       
 MgSiO3(III)     MgSiO3(L)       Mg2SiO4(L)      Mg3N2(cr)       NH4CL(II)      
 NH4CL(III)      NH4F(cr)        NH4F(L)         S(a)            S(b)           
 S(L)            SCL2(L)         S2CL2(L)        Si(cr)          Si(L)          
 SiO2(a-qz)      SiO2(b-qz)      SiO2(b-crt)     SiO2(L)         SiS(cr)        
 SiS(L)          SiS2(cr)        SiS2(L)         Si2N2O(cr)      Si3N4(cr)      






 POINT ITN      T            H           HE          N           S 
                    O           F           MG          SI          CL
                    BR

 SINGULAR MATRIX, ITERATION  1  VARIABLE 10(EQLBRM)
   1   18     800.000      -5.214     -11.516     -17.315     -20.322
                 -48.447     -65.613     -51.181     -48.630     -37.822
                 -36.904
   2    3     850.000      -5.283     -11.612     -16.909     -20.183
                 -46.339     -63.264     -47.953     -44.964     -37.076
                 -37.389
   3    2     900.000      -5.349     -11.706     -16.551     -20.064
                 -44.470     -61.182     -45.100     -41.723     -36.418
                 -37.174
 PHASE CHANGE, REPLACE  MgSiO3(I)      WITH  MgSiO3(II)     
   4    2     950.000      -5.414     -11.798     -16.235     -19.963
                 -42.801     -59.324     -42.558     -38.849     -35.836
                 -36.986
   5    2    1000.000      -5.477     -11.887     -15.955     -19.877
                 -41.302     -57.657     -40.283     -36.278     -35.316
                 -36.823
   6    2    1050.000      -5.538     -11.974     -15.707     -19.804
                 -39.949     -56.153     -38.236     -33.965     -34.851
                 -36.681
   7    2    1100.000      -5.598     -12.058     -15.488     -19.741
                 -38.722     -54.789     -36.388     -31.872     -34.433
                 -36.555
   8    3    1150.000      -5.656     -12.139     -15.296     -19.688
                 -37.605     -53.548     -34.711     -29.971     -34.055
                 -36.445




               THERMODYNAMIC EQUILIBRIUM PROPERTIES AT ASSIGNED

                           TEMPERATURE AND PRESSURE

 CASE = saturn         

             REACTANT                       MOLES         ENERGY      TEMP
                                                         KJ/KG-MOL      K
 NAME        H2                           1.0000000         0.000      0.000
 NAME        He                           0.1350000         0.000      0.000
 NAME        N2                           0.0002270         0.000      0.000
 NAME        H2S                          0.0003760         0.000      0.000
 NAME        O2                           0.0049000         0.000      0.000
 NAME        HF                           0.0000007         0.000      0.000
 NAME        Mg                           0.0007960         0.000      0.000
 NAME        Si                           0.0006470         0.000      0.000
 NAME        HCL                          0.0000063         0.000      0.000
 NAME        HBr                          0.0000000         0.000      0.000

 O/F=    0.00000  %FUEL=  0.000000  R,EQ.RATIO=*********  PHI,EQ.RATIO= 0.000000

 THERMODYNAMIC PROPERTIES

 P, BAR            800.88   800.88   800.88   800.88   800.88   800.88   800.88   800.88
 T, K              800.00   850.00   900.00   950.00  1000.00  1050.00  1100.00  1150.00
 RHO, KG/CU M    2.9380 1 2.7652 1 2.6116 1 2.4741 1 2.3504 1 2.2385 1 2.1367 1 2.0438 1
 H, KJ/KG         4761.70  5351.35  5943.30  6538.03  7135.72  7736.71  8341.09  8949.13
 U, KJ/KG         2035.81  2455.09  2876.67  3301.03  3728.35  4158.97  4592.96  5030.61
 G, KJ/KG        -30136.5 -32335.7 -34569.7 -36836.6 -39134.9 -41463.2 -43820.2 -46204.8
 S, KJ/(KG)(K)    43.6228  44.3377  45.0144  45.6575  46.2707  46.8571  47.4194  47.9599

 M, (1/n)           2.440    2.440    2.440    2.440    2.440    2.440    2.440    2.440
 MW, MOL WT         2.439    2.439    2.439    2.439    2.439    2.439    2.439    2.439
 (dLV/dLP)t      -1.00000 -1.00000 -1.00000 -1.00000 -1.00000 -1.00001 -1.00001 -1.00002
 (dLV/dLT)p        1.0000   1.0000   1.0000   1.0000   1.0000   1.0001   1.0001   1.0001
 Cp, KJ/(KG)(K)   11.7718  11.8151  11.8643  11.9212  11.9887  12.0525  12.1233  12.1990
 GAMMAs            1.4074   1.4053   1.4029   1.4002   1.3971   1.3942   1.3910   1.3877
 SON VEL,M/SEC     1958.7   2017.4   2074.2   2129.0   2181.8   2233.4   2283.3   2331.9

 MOLE FRACTIONS

 *Br             1.984-17 3.619-17 1.189-16 3.455-16 9.033-16 2.158-15 4.769-15 9.847-15
 *CL             6.314-19 4.327-18 2.400-17 1.114-16 4.445-16 1.557-15 4.872-15 1.382-14
 *H              9.567-14 6.768-13 3.861-12 1.838-11 7.496-11 2.679-10 8.540-10 2.465 -9
 HBr             1.2735-8 6.1028-9 6.1014-9 6.1014-9 6.1014-9 6.1014-9 6.1014-9 6.1013-9
 HCL             5.5643-6 5.5643-6 5.5643-6 5.5643-6 5.5643-6 5.5643-6 5.5643-6 5.5643-6
 *HF             6.3927-7 6.3919-7 6.3919-7 6.3919-7 6.3919-7 6.3919-7 6.3919-7 6.3919-7
 *H2             8.7305-1 8.7305-1 8.7305-1 8.7305-1 8.7305-1 8.7305-1 8.7305-1 8.7305-1
 H2F2            3.724-13 3.096-13 2.634-13 2.285-13 2.015-13 1.802-13 1.631-13 1.491-13
 H2O             6.7881-3 6.7881-3 6.7881-3 6.7881-3 6.7881-3 6.7881-3 6.7881-3 6.7881-3
 H2S             3.3104-4 3.3104-4 3.3104-4 3.3104-4 3.3104-4 3.3104-4 3.3104-4 3.3104-4
 *He             1.1886-1 1.1886-1 1.1886-1 1.1886-1 1.1886-1 1.1886-1 1.1886-1 1.1886-1
 MgCL2           2.540-17 1.105-16 4.064-16 1.303-15 3.705-15 9.497-15 2.225-14 4.822-14
 Mg(OH)2         1.295-20 2.219-19 2.777-18 2.679-17 2.062-16 1.307-15 7.005-15 3.242-14
 NH2             3.526-17 2.922-16 1.916-15 1.031-14 4.687-14 1.841-13 6.368-13 1.968-12
 NH3             3.9963-4 3.9950-4 3.9921-4 3.9863-4 3.9755-4 3.9567-4 3.9262-4 3.8796-4
 *N2             4.1517-8 1.0765-7 2.5247-7 5.4313-7 1.0835-6 2.0209-6 3.5458-6 5.8780-6
 *OH             3.249-19 3.985-18 3.707-17 2.733-16 1.652-15 8.425-15 3.709-14 1.437-13
 *S              2.362-21 3.499-20 3.855-19 3.307-18 2.293-17 1.324-16 6.529-16 2.805-15
 SH              3.443-13 1.505-12 5.596-12 1.813-11 5.228-11 1.363-10 3.260-10 7.230-10
 S2              4.075-17 1.980-16 8.097-16 2.863-15 8.944-15 2.510-14 6.424-14 1.516-13
 SiH3F           6.971-22 1.143-20 1.360-19 1.227-18 8.825-18 5.235-17 2.633-16 1.148-15
 SiH4            2.144-24 1.160-22 3.981-21 9.251-20 1.557-18 1.991-17 2.011-16 1.656-15
 MgSiO3(I)       4.3846-4 4.3846-4 4.3846-4 0.0000 0 0.0000 0 0.0000 0 0.0000 0 0.0000 0
 MgSiO3(II)      0.0000 0 0.0000 0 0.0000 0 4.3846-4 4.3846-4 4.3845-4 4.3845-4 4.3845-4
 Mg2SiO4(cr)     1.3118-4 1.3118-4 1.3118-4 1.3118-4 1.3118-4 1.3118-4 1.3118-4 1.3118-4

  * THERMODYNAMIC PROPERTIES FITTED TO 20000.K

    PRODUCTS WHICH WERE CONSIDERED BUT WHOSE MOLE FRACTIONS
    WERE LESS THAN 1.000000E-15 FOR ALL ASSIGNED CONDITIONS

 BrCL            BrF             BrF3            BrF5            BrO            
 OBrO            BrOO            BrO3            Br2             BrBrO          
 BrOBr           CLF             CLF3            CLF5            CLO            
 CLO2            CL2             CL2O            *F              FO             
 FO2,FOO         FO2,OFO         F2              F2O             F2O2           
 FS2F            HNO             HNO2            HNO3            HOCL           
 HOF             HO2             HSO3F           H2O2            H2SO4          
 H3F3            H4F4            H5F5            H6F6            H7F7           
 *Mg             MgBr            MgBr2           MgCL            MgF            
 MgF2            MgH             MgN             *MgO            MgOH           
 MgS             Mg2             Mg2F4           *N              NF             
 NF2             NF3             *NH             NHF             NHF2           
 NH2F            NH2OH           *NO             NOCL            NOF            
 NOF3            NO2             NO2CL           NO2F            NO3            
 NO3F            N2F2            N2F4            N2H2            NH2NO2         
 N2H4            N2O             N2O3            N2O4            N2O5           
 N3              N3H             *O              *O2             O3             
 SCL             SCL2            SF              SF2             SF3            
 SF4             SF5             SF6             SN              SO             
 SOF2            SO2             SO2CL2          SO2FCL          SO2F2          
 SO3             S2CL2           S2F2            S2O             S3             
 S4              S5              S6              S7              S8             
 *Si             SiBr            SiBr2           SiBr3           SiBr4          
 SiCL            SiCL2           SiCL3           SiCL4           SiF            
 SiFCL           SiF2            SiF3            SiF4            SiH            
 SiHBr3          SiHCL           SiHCL3          SiHF            SiHF3          
 SiH2            SiH2Br2         SiH2CL2         SiH2F2          SiH3           
 SiH3Br          SiH3CL          SiN             SiO             SiO2           
 SiS             SiS2            Si2             Si2F6           Si2N           
 Si3             Br2(cr)         Br2(L)          H2O(cr)         H2O(L)         
 H2SO4(L)        Mg(cr)          Mg(L)           MgBr2(cr)       MgBr2(L)       
 MgCL2(cr)       MgCL2(L)        MgF2(cr)        MgF2(L)         MgH2(b)        
 MgH2(L)         MgO(cr)         MgO(L)          Mg(OH)2(cr)     Mg(OH)2(L)     
 MgS(cr)         MgS(L)          MgSO4(II)       MgSO4(I)        MgSO4(L)       
 MgSiO3(III)     MgSiO3(L)       Mg2SiO4(L)      Mg3N2(cr)       NH4CL(II)      
 NH4CL(III)      NH4F(cr)        NH4F(L)         S(a)            S(b)           
 S(L)            SCL2(L)         S2CL2(L)        Si(cr)          Si(L)          
 SiO2(a-qz)      SiO2(b-qz)      SiO2(b-crt)     SiO2(L)         SiS(cr)        
 SiS(L)          SiS2(cr)        SiS2(L)         Si2N2O(cr)      Si3N4(cr)      






 POINT ITN      T            H           HE          N           S 
                    O           F           MG          SI          CL
                    BR
   1    3    1200.000      -5.713     -12.219     -15.130     -19.644
                 -36.583     -52.414     -33.184     -28.236     -33.712
                 -36.348
   2    3    1250.000      -5.768     -12.296     -14.988     -19.606
                 -35.646     -51.373     -31.788     -26.647     -33.400
                 -36.263

 SINGULAR MATRIX, ITERATION  1  VARIABLE 10(EQLBRM)
   3   18     800.000      -5.129     -11.344     -17.401     -20.322
                 -48.447     -65.527     -51.181     -48.630     -37.737
                 -36.806
   4    3     850.000      -5.197     -11.441     -16.994     -20.183
                 -46.339     -63.178     -47.953     -44.964     -36.990
                 -37.304
   5    2     900.000      -5.263     -11.535     -16.636     -20.064
                 -44.470     -61.096     -45.100     -41.723     -36.333
                 -37.088
 PHASE CHANGE, REPLACE  MgSiO3(I)      WITH  MgSiO3(II)     
   6    2     950.000      -5.328     -11.627     -16.320     -19.963
                 -42.801     -59.238     -42.558     -38.849     -35.750
                 -36.901
   7    2    1000.000      -5.391     -11.716     -16.039     -19.877
                 -41.302     -57.571     -40.283     -36.278     -35.231
                 -36.738
   8    2    1050.000      -5.453     -11.802     -15.790     -19.804
                 -39.949     -56.067     -38.236     -33.965     -34.766
                 -36.595




               THERMODYNAMIC EQUILIBRIUM PROPERTIES AT ASSIGNED

                           TEMPERATURE AND PRESSURE

 CASE = saturn         

             REACTANT                       MOLES         ENERGY      TEMP
                                                         KJ/KG-MOL      K
 NAME        H2                           1.0000000         0.000      0.000
 NAME        He                           0.1350000         0.000      0.000
 NAME        N2                           0.0002270         0.000      0.000
 NAME        H2S                          0.0003760         0.000      0.000
 NAME        O2                           0.0049000         0.000      0.000
 NAME        HF                           0.0000007         0.000      0.000
 NAME        Mg                           0.0007960         0.000      0.000
 NAME        Si                           0.0006470         0.000      0.000
 NAME        HCL                          0.0000063         0.000      0.000
 NAME        HBr                          0.0000000         0.000      0.000

 O/F=    0.00000  %FUEL=  0.000000  R,EQ.RATIO=*********  PHI,EQ.RATIO= 0.000000

 THERMODYNAMIC PROPERTIES

 P, BAR            800.88   800.88   950.36   950.36   950.36   950.36   950.36   950.36
 T, K             1200.00  1250.00   800.00   850.00   900.00   950.00  1000.00  1050.00
 RHO, KG/CU M    1.9587 1 1.8803 1 3.4864 1 3.2813 1 3.0990 1 2.9359 1 2.7891 1 2.6563 1
 H, KJ/KG         9561.04  10177.0  4761.70  5351.34  5943.30  6538.02  7135.70  7736.69
 U, KJ/KG         5472.13  5917.65  2035.81  2455.09  2876.67  3301.02  3728.34  4158.95
 G, KJ/KG        -48615.9 -51052.6 -29670.1 -31840.1 -34044.9 -36282.7 -38551.8 -40851.0
 S, KJ/(KG)(K)    48.4808  48.9837  43.0397  43.7546  44.4313  45.0744  45.6875  46.2740

 M, (1/n)           2.440    2.440    2.440    2.440    2.440    2.440    2.440    2.440
 MW, MOL WT         2.439    2.439    2.439    2.439    2.439    2.439    2.439    2.439
 (dLV/dLP)t      -1.00003 -1.00005 -1.00000 -1.00000 -1.00000 -1.00000 -1.00000 -1.00001
 (dLV/dLT)p        1.0002   1.0003   1.0000   1.0000   1.0000   1.0000   1.0000   1.0000
 Cp, KJ/(KG)(K)   12.2781  12.3593  11.7718  11.8150  11.8643  11.9211  11.9885  12.0522
 GAMMAs            1.3843   1.3808   1.4074   1.4053   1.4029   1.4002   1.3971   1.3942
 SON VEL,M/SEC     2379.1   2425.2   1958.7   2017.4   2074.2   2129.0   2181.8   2233.4

 MOLE FRACTIONS

 *Br             1.916-14 3.538-14 1.843-17 3.323-17 1.092-16 3.171-16 8.292-16 1.981-15
 *CL             3.600-14 8.691-14 5.796-19 3.972-18 2.203-17 1.023-16 4.080-16 1.429-15
 *H              6.519 -9 1.597 -8 8.782-14 6.213-13 3.544-12 1.687-11 6.881-11 2.459-10
 HBr             6.1013-9 6.1012-9 1.2887-8 6.1030-9 6.1014-9 6.1014-9 6.1014-9 6.1014-9
 HCL             5.5642-6 5.5642-6 5.5643-6 5.5643-6 5.5643-6 5.5643-6 5.5643-6 5.5643-6
 *HF             6.3918-7 6.3918-7 6.3926-7 6.3919-7 6.3919-7 6.3919-7 6.3919-7 6.3919-7
 *H2             8.7306-1 8.7306-1 8.7305-1 8.7305-1 8.7305-1 8.7305-1 8.7305-1 8.7305-1
 H2F2            1.376-13 1.279-13 4.419-13 3.674-13 3.126-13 2.712-13 2.391-13 2.138-13
 H2O             6.7880-3 6.7880-3 6.7881-3 6.7881-3 6.7881-3 6.7881-3 6.7881-3 6.7881-3
 H2S             3.3104-4 3.3103-4 3.3104-4 3.3104-4 3.3104-4 3.3104-4 3.3104-4 3.3104-4
 *He             1.1886-1 1.1886-1 1.1886-1 1.1886-1 1.1886-1 1.1886-1 1.1886-1 1.1886-1
 *Mg             5.521-16 4.342-15 2.213-27 2.258-25 1.367-23 5.359-22 1.446-20 2.833-19
 MgCL2           9.756-14 1.858-13 2.540-17 1.105-16 4.064-16 1.303-15 3.705-15 9.497-15
 Mg(OH)2         1.319-13 4.791-13 1.295-20 2.219-19 2.777-18 2.679-17 2.062-16 1.307-15
 NH2             5.503-12 1.406-11 3.237-17 2.682-16 1.759-15 9.473-15 4.309-14 1.695-13
 NH3             3.8124-4 3.7214-4 3.9966-4 3.9956-4 3.9936-4 3.9894-4 3.9817-4 3.9683-4
 *N2             9.2348-6 1.3784-5 2.9487-8 7.6474-8 1.7943-7 3.8632-7 7.7185-7 1.4435-6
 *OH             4.975-13 1.561-12 2.982-19 3.658-18 3.403-17 2.508-16 1.516-15 7.734-15
 *S              1.068-14 3.659-14 1.990-21 2.949-20 3.248-19 2.787-18 1.932-17 1.116-16
 SH              1.500 -9 2.938 -9 3.160-13 1.382-12 5.137-12 1.664-11 4.799-11 1.252-10
 SO              1.443-15 4.431-15 1.091-21 1.257-20 1.108-19 7.801-19 4.532-18 2.233-17
 S2              3.334-13 6.886-13 3.434-17 1.668-16 6.823-16 2.413-15 7.537-15 2.116-14
 SiH2F2          7.281-16 1.461-15 1.281-19 6.232-19 2.526-18 8.707-18 2.637-17 7.165-17
 SiH3F           4.424-15 1.529-14 8.272-22 1.356-20 1.614-19 1.456-18 1.047-17 6.212-17
 SiH4            1.142-14 6.738-14 2.544-24 1.376-22 4.724-21 1.098-19 1.847-18 2.362-17
 SiO             2.420-15 2.312-14 9.137-28 1.429-25 1.264-23 6.860-22 2.478-20 6.328-19
 SiS             2.741-16 2.459-15 2.168-28 2.988-26 2.360-24 1.156-22 3.804-21 8.917-20
 MgSiO3(I)       0.0000 0 0.0000 0 4.3846-4 4.3846-4 4.3846-4 0.0000 0 0.0000 0 0.0000 0
 MgSiO3(II)      4.3845-4 4.3844-4 0.0000 0 0.0000 0 0.0000 0 4.3846-4 4.3846-4 4.3845-4
 Mg2SiO4(cr)     1.3118-4 1.3118-4 1.3118-4 1.3118-4 1.3118-4 1.3118-4 1.3118-4 1.3118-4

  * THERMODYNAMIC PROPERTIES FITTED TO 20000.K

    PRODUCTS WHICH WERE CONSIDERED BUT WHOSE MOLE FRACTIONS
    WERE LESS THAN 1.000000E-15 FOR ALL ASSIGNED CONDITIONS

 BrCL            BrF             BrF3            BrF5            BrO            
 OBrO            BrOO            BrO3            Br2             BrBrO          
 BrOBr           CLF             CLF3            CLF5            CLO            
 CLO2            CL2             CL2O            *F              FO             
 FO2,FOO         FO2,OFO         F2              F2O             F2O2           
 FS2F            HNO             HNO2            HNO3            HOCL           
 HOF             HO2             HSO3F           H2O2            H2SO4          
 H3F3            H4F4            H5F5            H6F6            H7F7           
 MgBr            MgBr2           MgCL            MgF             MgF2           
 MgH             MgN             *MgO            MgOH            MgS            
 Mg2             Mg2F4           *N              NF              NF2            
 NF3             *NH             NHF             NHF2            NH2F           
 NH2OH           *NO             NOCL            NOF             NOF3           
 NO2             NO2CL           NO2F            NO3             NO3F           
 N2F2            N2F4            N2H2            NH2NO2          N2H4           
 N2O             N2O3            N2O4            N2O5            N3             
 N3H             *O              *O2             O3              SCL            
 SCL2            SF              SF2             SF3             SF4            
 SF5             SF6             SN              SOF2            SO2            
 SO2CL2          SO2FCL          SO2F2           SO3             S2CL2          
 S2F2            S2O             S3              S4              S5             
 S6              S7              S8              *Si             SiBr           
 SiBr2           SiBr3           SiBr4           SiCL            SiCL2          
 SiCL3           SiCL4           SiF             SiFCL           SiF2           
 SiF3            SiF4            SiH             SiHBr3          SiHCL          
 SiHCL3          SiHF            SiHF3           SiH2            SiH2Br2        
 SiH2CL2         SiH3            SiH3Br          SiH3CL          SiN            
 SiO2            SiS2            Si2             Si2F6           Si2N           
 Si3             Br2(cr)         Br2(L)          H2O(cr)         H2O(L)         
 H2SO4(L)        Mg(cr)          Mg(L)           MgBr2(cr)       MgBr2(L)       
 MgCL2(cr)       MgCL2(L)        MgF2(cr)        MgF2(L)         MgH2(b)        
 MgH2(L)         MgO(cr)         MgO(L)          Mg(OH)2(cr)     Mg(OH)2(L)     
 MgS(cr)         MgS(L)          MgSO4(II)       MgSO4(I)        MgSO4(L)       
 MgSiO3(III)     MgSiO3(L)       Mg2SiO4(L)      Mg3N2(cr)       NH4CL(II)      
 NH4CL(III)      NH4F(cr)        NH4F(L)         S(a)            S(b)           
 S(L)            SCL2(L)         S2CL2(L)        Si(cr)          Si(L)          
 SiO2(a-qz)      SiO2(b-qz)      SiO2(b-crt)     SiO2(L)         SiS(cr)        
 SiS(L)          SiS2(cr)        SiS2(L)         Si2N2O(cr)      Si3N4(cr)      






 POINT ITN      T            H           HE          N           S 
                    O           F           MG          SI          CL
                    BR
   1    2    1100.000      -5.512     -11.886     -15.569     -19.741
                 -38.722     -54.704     -36.388     -31.872     -34.347
                 -36.470
   2    2    1150.000      -5.570     -11.968     -15.374     -19.688
                 -37.605     -53.462     -34.711     -29.971     -33.969
                 -36.360
   3    3    1200.000      -5.627     -12.047     -15.202     -19.644
                 -36.583     -52.328     -33.184     -28.236     -33.627
[...]
 NF2             NF3             *NH             NHF             NHF2           
 NH2F            NH2OH           *NO             NOCL            NOF            
 NOF3            NO2             NO2CL           NO2F            NO3            
 NO3F            N2F2            N2F4            N2H2            NH2NO2         
 N2H4            N2O             N2O3            N2O4            N2O5           
 N3              N3H             *O              *O2             O3             
 SCL             SCL2            SF              SF2             SF3            
 SF4             SF5             SF6             SN              SO             
 SOF2            SO2             SO2CL2          SO2FCL          SO2F2          
 SO3             S2CL2           S2F2            S2O             S3             
 S4              S5              S6              S7              S8             
 *Si             SiBr            SiBr2           SiBr3           SiBr4          
 SiCL            SiCL2           SiCL3           SiCL4           SiF            
 SiFCL           SiF2            SiF3            SiF4            SiH            
 SiHBr3          SiHCL           SiHCL3          SiHF            SiHF3          
 SiH2            SiH2Br2         SiH2CL2         SiH2F2          SiH3           
 SiH3Br          SiH3CL          SiN             SiO             SiO2           
 SiS             SiS2            Si2             Si2F6           Si2N           
 Si3             Br2(cr)         Br2(L)          H2O(cr)         H2O(L)         
 H2SO4(L)        Mg(cr)          Mg(L)           MgBr2(cr)       MgBr2(L)       
 MgCL2(cr)       MgCL2(L)        MgF2(cr)        MgF2(L)         MgH2(b)        
 MgH2(L)         MgO(cr)         MgO(L)          Mg(OH)2(cr)     Mg(OH)2(L)     
 MgS(cr)         MgS(L)          MgSO4(II)       MgSO4(I)        MgSO4(L)       
 MgSiO3(III)     MgSiO3(L)       Mg2SiO4(L)      Mg3N2(cr)       NH4CL(II)      
 NH4CL(III)      NH4F(cr)        NH4F(L)         S(a)            S(b)           
 S(L)            SCL2(L)         S2CL2(L)        Si(cr)          Si(L)          
 SiO2(a-qz)      SiO2(b-qz)      SiO2(b-crt)     SiO2(L)         SiS(cr)        
 SiS(L)          SiS2(cr)        SiS2(L)         Si2N2O(cr)      Si3N4(cr)      






 POINT ITN      T            H           HE          N           S 
                    O           F           MG          SI          CL
                    BR
   1    2    1200.000      -5.390     -11.574     -15.419     -19.644
                 -36.583     -52.091     -33.184     -28.236     -33.390
                 -36.026
   2    2    1250.000      -5.445     -11.651     -15.260     -19.606
                 -35.646     -51.051     -31.788     -26.647     -33.078
                 -35.940

 SINGULAR MATRIX, ITERATION  1  VARIABLE 10(EQLBRM)
   3   18     800.000      -4.819     -10.724     -17.711     -20.322
                 -48.447     -65.217     -51.181     -48.630     -37.427
                 -36.453
   4    3     850.000      -4.887     -10.821     -17.304     -20.183
                 -46.339     -62.868     -47.953     -44.964     -36.680
                 -36.993
   5    2     900.000      -4.953     -10.915     -16.946     -20.064
                 -44.470     -60.786     -45.100     -41.723     -36.022
                 -36.778
 PHASE CHANGE, REPLACE  MgSiO3(I)      WITH  MgSiO3(II)     
   6    2     950.000      -5.018     -11.006     -16.629     -19.963
                 -42.801     -58.928     -42.558     -38.849     -35.440
                 -36.591
   7    2    1000.000      -5.081     -11.095     -16.347     -19.877
                 -41.302     -57.261     -40.283     -36.278     -34.921
                 -36.427
   8    2    1050.000      -5.142     -11.182     -16.095     -19.804
                 -39.949     -55.757     -38.236     -33.965     -34.456
                 -36.285




               THERMODYNAMIC EQUILIBRIUM PROPERTIES AT ASSIGNED

                           TEMPERATURE AND PRESSURE

 CASE = saturn         

             REACTANT                       MOLES         ENERGY      TEMP
                                                         KJ/KG-MOL      K
 NAME        H2                           1.0000000         0.000      0.000
 NAME        He                           0.1350000         0.000      0.000
 NAME        N2                           0.0002270         0.000      0.000
 NAME        H2S                          0.0003760         0.000      0.000
 NAME        O2                           0.0049000         0.000      0.000
 NAME        HF                           0.0000007         0.000      0.000
 NAME        Mg                           0.0007960         0.000      0.000
 NAME        Si                           0.0006470         0.000      0.000
 NAME        HCL                          0.0000063         0.000      0.000
 NAME        HBr                          0.0000000         0.000      0.000

 O/F=    0.00000  %FUEL=  0.000000  R,EQ.RATIO=*********  PHI,EQ.RATIO= 0.000000

 THERMODYNAMIC PROPERTIES

 P, BAR           1526.32  1526.32  1767.42  1767.42  1767.42  1767.42  1767.42  1767.42
 T, K             1200.00  1250.00   800.00   850.00   900.00   950.00  1000.00  1050.00
 RHO, KG/CU M    3.7329 1 3.5836 1 6.4838 1 6.1024 1 5.7634 1 5.4601 1 5.1871 1 4.9401 1
 H, KJ/KG         9560.74  10176.5  4761.69  5351.34  5943.29  6538.01  7135.68  7736.64
 U, KJ/KG         5471.89  5917.29  2035.80  2455.08  2876.67  3301.01  3728.32  4158.91
 G, KJ/KG        -45979.0 -48305.8 -27978.8 -30043.2 -32142.2 -34274.3 -36437.8 -38631.2
 S, KJ/(KG)(K)    46.2831  46.7858  40.9257  41.6406  42.3173  42.9603  43.5735  44.1599

 M, (1/n)           2.440    2.440    2.440    2.440    2.440    2.440    2.440    2.440
 MW, MOL WT         2.439    2.439    2.439    2.439    2.439    2.439    2.439    2.439
 (dLV/dLP)t      -1.00001 -1.00002 -1.00000 -1.00000 -1.00000 -1.00000 -1.00000 -1.00000
 (dLV/dLT)p        1.0001   1.0001   1.0000   1.0000   1.0000   1.0000   1.0000   1.0000
 Cp, KJ/(KG)(K)   12.2756  12.3561  11.7718  11.8150  11.8642  11.9209  11.9881  12.0516
 GAMMAs            1.3843   1.3808   1.4074   1.4053   1.4029   1.4002   1.3971   1.3942
 SON VEL,M/SEC     2379.1   2425.1   1958.7   2017.4   2074.2   2129.0   2181.8   2233.4

 MOLE FRACTIONS

 *Br             1.388-14 2.563-14 1.411-17 2.437-17 8.006-17 2.326-16 6.081-16 1.453-15
 *CL             2.608-14 6.296-14 4.250-19 2.912-18 1.616-17 7.500-17 2.992-16 1.048-15
 *H              4.722 -9 1.157 -8 6.440-14 4.556-13 2.599-12 1.237-11 5.046-11 1.803-10
 HBr             6.1014-9 6.1014-9 1.3456-8 6.1037-9 6.1014-9 6.1014-9 6.1014-9 6.1014-9
 HCL             5.5643-6 5.5643-6 5.5643-6 5.5643-6 5.5643-6 5.5643-6 5.5643-6 5.5643-6
 *HF             6.3919-7 6.3919-7 6.3924-7 6.3919-7 6.3920-7 6.3920-7 6.3919-7 6.3919-7
 *H2             8.7305-1 8.7305-1 8.7305-1 8.7305-1 8.7305-1 8.7305-1 8.7305-1 8.7305-1
 H2F2            2.622-13 2.438-13 8.218-13 6.832-13 5.813-13 5.043-13 4.447-13 3.977-13
 H2O             6.7881-3 6.7881-3 6.7881-3 6.7881-3 6.7881-3 6.7881-3 6.7881-3 6.7881-3
 H2S             3.3104-4 3.3104-4 3.3104-4 3.3104-4 3.3104-4 3.3104-4 3.3104-4 3.3104-4
 *He             1.1886-1 1.1886-1 1.1886-1 1.1886-1 1.1886-1 1.1886-1 1.1886-1 1.1886-1
 *Mg             2.897-16 2.278-15 1.190-27 1.214-25 7.352-24 2.882-22 7.776-21 1.523-19
 MgCL2           9.756-14 1.858-13 2.540-17 1.105-16 4.064-16 1.303-15 3.705-15 9.497-15
 Mg(OH)2         1.319-13 4.791-13 1.295-20 2.219-19 2.777-18 2.679-17 2.062-16 1.307-15
 NH2             4.123-12 1.071-11 2.374-17 1.968-16 1.291-15 6.956-15 3.168-14 1.249-13
 NH3             3.9428-4 3.9132-4 3.9970-4 3.9967-4 3.9961-4 3.9949-4 3.9927-4 3.9887-4
 *N2             2.7195-6 4.1965-6 8.5275-9 2.2123-8 5.1944-8 1.1200-7 2.2440-7 4.2169-7
 *OH             3.604-13 1.131-12 2.187-19 2.682-18 2.496-17 1.839-16 1.112-15 5.671-15
 *S              5.606-15 1.920-14 1.070-21 1.586-20 1.747-19 1.498-18 1.039-17 6.000-17
 SH              1.087 -9 2.128 -9 2.317-13 1.013-12 3.767-12 1.221-11 3.519-11 9.178-11
 SO              7.572-16 2.325-15 5.868-22 6.757-21 5.959-20 4.195-19 2.437-18 1.201-17
 S2              1.749-13 3.614-13 1.847-17 8.970-17 3.669-16 1.297-15 4.053-15 1.138-14
 SiH2F2          1.387-15 2.784-15 2.382-19 1.159-18 4.698-18 1.619-17 4.905-17 1.333-16
 SiH3CL          3.711-16 1.597-15 4.333-24 1.154-22 2.115-21 2.808-20 2.858-19 2.321-18
 SiH3F           8.431-15 2.914-14 1.538-21 2.521-20 3.002-19 2.708-18 1.947-17 1.155-16
 SiH4            2.176-14 1.284-13 4.732-24 2.559-22 8.786-21 2.042-19 3.435-18 4.393-17
 SiO             1.270-15 1.213-14 4.913-28 7.684-26 6.798-24 3.689-22 1.333-20 3.403-19
 SiS             1.438-16 1.290-15 1.165-28 1.607-26 1.269-24 6.215-23 2.045-21 4.795-20
 MgSiO3(I)       0.0000 0 0.0000 0 4.3846-4 4.3846-4 4.3846-4 0.0000 0 0.0000 0 0.0000 0
 MgSiO3(II)      4.3845-4 4.3845-4 0.0000 0 0.0000 0 0.0000 0 4.3846-4 4.3846-4 4.3846-4
 Mg2SiO4(cr)     1.3118-4 1.3118-4 1.3118-4 1.3118-4 1.3118-4 1.3118-4 1.3118-4 1.3118-4

  * THERMODYNAMIC PROPERTIES FITTED TO 20000.K

    PRODUCTS WHICH WERE CONSIDERED BUT WHOSE MOLE FRACTIONS
    WERE LESS THAN 1.000000E-15 FOR ALL ASSIGNED CONDITIONS

 BrCL            BrF             BrF3            BrF5            BrO            
 OBrO            BrOO            BrO3            Br2             BrBrO          
 BrOBr           CLF             CLF3            CLF5            CLO            
 CLO2            CL2             CL2O            *F              FO             
 FO2,FOO         FO2,OFO         F2              F2O             F2O2           
 FS2F            HNO             HNO2            HNO3            HOCL           
 HOF             HO2             HSO3F           H2O2            H2SO4          
 H3F3            H4F4            H5F5            H6F6            H7F7           
 MgBr            MgBr2           MgCL            MgF             MgF2           
 MgH             MgN             *MgO            MgOH            MgS            
 Mg2             Mg2F4           *N              NF              NF2            
 NF3             *NH             NHF             NHF2            NH2F           
 NH2OH           *NO             NOCL            NOF             NOF3           
 NO2             NO2CL           NO2F            NO3             NO3F           
 N2F2            N2F4            N2H2            NH2NO2          N2H4           
 N2O             N2O3            N2O4            N2O5            N3             
 N3H             *O              *O2             O3              SCL            
 SCL2            SF              SF2             SF3             SF4            
 SF5             SF6             SN              SOF2            SO2            
 SO2CL2          SO2FCL          SO2F2           SO3             S2CL2          
 S2F2            S2O             S3              S4              S5             
 S6              S7              S8              *Si             SiBr           
 SiBr2           SiBr3           SiBr4           SiCL            SiCL2          
 SiCL3           SiCL4           SiF             SiFCL           SiF2           
 SiF3            SiF4            SiH             SiHBr3          SiHCL          
 SiHCL3          SiHF            SiHF3           SiH2            SiH2Br2        
 SiH2CL2         SiH3            SiH3Br          SiN             SiO2           
 SiS2            Si2             Si2F6           Si2N            Si3            
 Br2(cr)         Br2(L)          H2O(cr)         H2O(L)          H2SO4(L)       
 Mg(cr)          Mg(L)           MgBr2(cr)       MgBr2(L)        MgCL2(cr)      
 MgCL2(L)        MgF2(cr)        MgF2(L)         MgH2(b)         MgH2(L)        
 MgO(cr)         MgO(L)          Mg(OH)2(cr)     Mg(OH)2(L)      MgS(cr)        
 MgS(L)          MgSO4(II)       MgSO4(I)        MgSO4(L)        MgSiO3(III)    
 MgSiO3(L)       Mg2SiO4(L)      Mg3N2(cr)       NH4CL(II)       NH4CL(III)     
 NH4F(cr)        NH4F(L)         S(a)            S(b)            S(L)           
 SCL2(L)         S2CL2(L)        Si(cr)          Si(L)           SiO2(a-qz)     
 SiO2(b-qz)      SiO2(b-crt)     SiO2(L)         SiS(cr)         SiS(L)         
 SiS2(cr)        SiS2(L)         Si2N2O(cr)      Si3N4(cr)      






 POINT ITN      T            H           HE          N           S 
                    O           F           MG          SI          CL
                    BR
   1    2    1100.000      -5.202     -11.266     -15.870     -19.741
                 -38.722     -54.393     -36.388     -31.872     -34.037
                 -36.160
   2    2    1150.000      -5.260     -11.348     -15.669     -19.688
                 -37.605     -53.152     -34.711     -29.971     -33.659
                 -36.050
   3    2    1200.000      -5.317     -11.427     -15.489     -19.644
                 -36.583     -52.018     -33.184     -28.236     -33.317
                 -35.953
   4    2    1250.000      -5.372     -11.504     -15.328     -19.606
                 -35.646     -50.977     -31.788     -26.647     -33.005
                 -35.867




               THERMODYNAMIC EQUILIBRIUM PROPERTIES AT ASSIGNED

                           TEMPERATURE AND PRESSURE

 CASE = saturn         

             REACTANT                       MOLES         ENERGY      TEMP
                                                         KJ/KG-MOL      K
 NAME        H2                           1.0000000         0.000      0.000
 NAME        He                           0.1350000         0.000      0.000
 NAME        N2                           0.0002270         0.000      0.000
 NAME        H2S                          0.0003760         0.000      0.000
 NAME        O2                           0.0049000         0.000      0.000
 NAME        HF                           0.0000007         0.000      0.000
 NAME        Mg                           0.0007960         0.000      0.000
 NAME        Si                           0.0006470         0.000      0.000
 NAME        HCL                          0.0000063         0.000      0.000
 NAME        HBr                          0.0000000         0.000      0.000

 O/F=    0.00000  %FUEL=  0.000000  R,EQ.RATIO=*********  PHI,EQ.RATIO= 0.000000

 THERMODYNAMIC PROPERTIES

 P, BAR           1767.42  1767.42  1767.42  1767.42
 T, K             1100.00  1150.00  1200.00  1250.00
 RHO, KG/CU M    4.7155 1 4.5105 1 4.3225 1 4.1496 1
 H, KJ/KG         8340.96  8948.92  9560.71  10176.5
 U, KJ/KG         4592.85  5030.44  5471.86  5917.25
 G, KJ/KG        -40853.4 -43103.1 -45379.3 -47681.1
 S, KJ/(KG)(K)    44.7221  45.2626  45.7833  46.2861

 M, (1/n)           2.440    2.440    2.440    2.440
 MW, MOL WT         2.439    2.439    2.439    2.439
 (dLV/dLP)t      -1.00000 -1.00000 -1.00001 -1.00001
 (dLV/dLT)p        1.0000   1.0000   1.0000   1.0001
 Cp, KJ/(KG)(K)   12.1219  12.1970  12.2753  12.3557
 GAMMAs            1.3910   1.3877   1.3843   1.3808
 SON VEL,M/SEC     2283.3   2331.9   2379.1   2425.1

 MOLE FRACTIONS

 *Br             3.210-15 6.628-15 1.290-14 2.382-14
 *CL             3.279-15 9.305-15 2.423-14 5.851-14
 *H              5.749-10 1.659 -9 4.388 -9 1.075 -8
 HBr             6.1014-9 6.1014-9 6.1014-9 6.1014-9
 HCL             5.5643-6 5.5643-6 5.5643-6 5.5643-6
 *HF             6.3919-7 6.3919-7 6.3919-7 6.3919-7
 *H2             8.7305-1 8.7305-1 8.7305-1 8.7305-1
 H2F2            3.599-13 3.291-13 3.036-13 2.823-13
 H2O             6.7881-3 6.7881-3 6.7881-3 6.7881-3
 H2S             3.3104-4 3.3104-4 3.3104-4 3.3104-4
 *He             1.1886-1 1.1886-1 1.1886-1 1.1886-1
 *Mg             2.263-18 2.643-17 2.502-16 1.968-15
 MgCL2           2.225-14 4.822-14 9.756-14 1.858-13
 Mg(OH)2         7.005-15 3.242-14 1.319-13 4.791-13
 NH2             4.348-13 1.356-12 3.844-12 1.001-11
 NH3             3.9822-4 3.9719-4 3.9563-4 3.9339-4
 *N2             7.4898-7 1.2651-6 2.0421-6 3.1628-6
 *OH             2.497-14 9.672-14 3.349-13 1.051-12
 *S              2.959-16 1.271-15 4.841-15 1.658-14
 SH              2.195-10 4.867-10 1.010 -9 1.978 -9
 SO              5.128-17 1.934-16 6.539-16 2.008-15
 S2              2.911-14 6.871-14 1.511-13 3.121-13
 SiH2F2          3.299-16 7.537-16 1.607-15 3.224-15
 SiH3CL          1.553-17 8.788-17 4.297-16 1.849-15
 SiH3F           5.811-16 2.534-15 9.763-15 3.374-14
 SiH4            4.437-16 3.655-15 2.520-14 1.487-13
 SiO             6.443-18 9.413-17 1.097-15 1.048-14
 SiS             8.393-19 1.140-17 1.242-16 1.114-15
 MgSiO3(II)      4.3846-4 4.3846-4 4.3845-4 4.3845-4
 Mg2SiO4(cr)     1.3118-4 1.3118-4 1.3118-4 1.3118-4

  * THERMODYNAMIC PROPERTIES FITTED TO 20000.K

    PRODUCTS WHICH WERE CONSIDERED BUT WHOSE MOLE FRACTIONS
    WERE LESS THAN 1.000000E-15 FOR ALL ASSIGNED CONDITIONS

 BrCL            BrF             BrF3            BrF5            BrO            
 OBrO            BrOO            BrO3            Br2             BrBrO          
 BrOBr           CLF             CLF3            CLF5            CLO            
 CLO2            CL2             CL2O            *F              FO             
 FO2,FOO         FO2,OFO         F2              F2O             F2O2           
 FS2F            HNO             HNO2            HNO3            HOCL           
 HOF             HO2             HSO3F           H2O2            H2SO4          
 H3F3            H4F4            H5F5            H6F6            H7F7           
 MgBr            MgBr2           MgCL            MgF             MgF2           
 MgH             MgN             *MgO            MgOH            MgS            
 Mg2             Mg2F4           *N              NF              NF2            
 NF3             *NH             NHF             NHF2            NH2F           
 NH2OH           *NO             NOCL            NOF             NOF3           
 NO2             NO2CL           NO2F            NO3             NO3F           
 N2F2            N2F4            N2H2            NH2NO2          N2H4           
 N2O             N2O3            N2O4            N2O5            N3             
 N3H             *O              *O2             O3              SCL            
 SCL2            SF              SF2             SF3             SF4            
 SF5             SF6             SN              SOF2            SO2            
 SO2CL2          SO2FCL          SO2F2           SO3             S2CL2          
 S2F2            S2O             S3              S4              S5             
 S6              S7              S8              *Si             SiBr           
 SiBr2           SiBr3           SiBr4           SiCL            SiCL2          
 SiCL3           SiCL4           SiF             SiFCL           SiF2           
 SiF3            SiF4            SiH             SiHBr3          SiHCL          
 SiHCL3          SiHF            SiHF3           SiH2            SiH2Br2        
 SiH2CL2         SiH3            SiH3Br          SiN             SiO2           
 SiS2            Si2             Si2F6           Si2N            Si3            
 Br2(cr)         Br2(L)          H2O(cr)         H2O(L)          H2SO4(L)       
 Mg(cr)          Mg(L)           MgBr2(cr)       MgBr2(L)        MgCL2(cr)      
 MgCL2(L)        MgF2(cr)        MgF2(L)         MgH2(b)         MgH2(L)        
 MgO(cr)         MgO(L)          Mg(OH)2(cr)     Mg(OH)2(L)      MgS(cr)        
 MgS(L)          MgSO4(II)       MgSO4(I)        MgSO4(L)        MgSiO3(I)      
 MgSiO3(III)     MgSiO3(L)       Mg2SiO4(L)      Mg3N2(cr)       NH4CL(II)      
 NH4CL(III)      NH4F(cr)        NH4F(L)         S(a)            S(b)           
 S(L)            SCL2(L)         S2CL2(L)        Si(cr)          Si(L)          
 SiO2(a-qz)      SiO2(b-qz)      SiO2(b-crt)     SiO2(L)         SiS(cr)        
 SiS(L)          SiS2(cr)        SiS2(L)         Si2N2O(cr)      Si3N4(cr)      



