
 *******************************************************************************

         NASA-GLENN CHEMICAL EQUILIBRIUM PROGRAM CEA2, MAY 21, 2004
                   BY  BONNIE MCBRIDE AND SANFORD GORDON
      REFS: NASA RP-1311, PART I, 1994 AND NASA RP-1311, PART II, 1996

 *******************************************************************************



 prob
 case=saturn tp
 t,k= 800,850,900,950,1000,1050,1100,1150,1200,1250
 p,bar= 369.74, 455.55, 555.05, 669.65, 800.88, 950.36, 1119.83, 1311.16, 1526.32
 , 1767.42
 react
   name=H2 moles=1.0
   name=He moles=0.135
 #  name=CH4 moles=5.33e-3
   name=N2 moles = 2.27e-4
   name=H2S moles=3.76e-4
 #  name=PH3 moles = 7.28e-6
  
 # one time solar water
   name=O2 moles = 4.9e-4
 # all others are ten time solar
   name=HF moles = 7.26e-7
 #  name=Na moles = 3.48e-5
   name=Mg moles = 7.96e-4
   name=Si moles=6.47e-4
  
   name=HCL moles = 6.32e-6
 #  name=K moles = 2.14e-6
 #  name=Ca moles = 4.38e-5
 #  name=GeH4 moles = 8.93e-8
   name=HBr moles=6.93e-9
  
 output    trace=1e-15
 plot t p Si2N2O(cr) Mg2SiO4(cr) MgSiO3(I) MgSiO3(II) MgSiO3(III) MgSiO3(L) SiO2 
 SiO SiH4 SiH3 SiH2
  
 end

 OPTIONS: TP=T  HP=F  SP=F  TV=F  UV=F  SV=F  DETN=F  SHOCK=F  REFL=F  INCD=F
 RKT=F  FROZ=F  EQL=F  IONS=F  SIUNIT=T  DEBUGF=F  SHKDBG=F  DETDBG=F  TRNSPT=F

 T,K =   800.0000   850.0000   900.0000   950.0000  1000.0000  1050.0000  1100.0000

 T,K =  1150.0000  1200.0000  1250.0000

 TRACE= 1.00E-15  S/R= 0.000000E+00  H/R= 0.000000E+00  U/R= 0.000000E+00

 P,BAR =   369.740000   455.550000   555.050000   669.650000   800.880000   950.360000  1119.830000

 P,BAR =  1311.160000  1526.320000  1767.420000

    REACTANT           MOLES    (ENERGY/R),K   TEMP,K  DENSITY
        EXPLODED FORMULA
 N: H2               1.000000   0.000000E+00     0.00  0.0000
          H  2.00000
 N: He               0.135000   0.000000E+00     0.00  0.0000
          HE 1.00000
 N: N2               0.000227   0.000000E+00     0.00  0.0000
          N  2.00000
 N: H2S              0.000376   0.000000E+00     0.00  0.0000
          H  2.00000  S  1.00000
 N: O2               0.000490   0.000000E+00     0.00  0.0000
          O  2.00000
 N: HF               0.000001   0.000000E+00     0.00  0.0000
          H  1.00000  F  1.00000
 N: Mg               0.000796   0.000000E+00     0.00  0.0000
          MG 1.00000
 N: Si               0.000647   0.000000E+00     0.00  0.0000
          SI 1.00000
 N: HCL              0.000006   0.000000E+00     0.00  0.0000
          H  1.00000  CL 1.00000
 N: HBr              0.000000   0.000000E+00     0.00  0.0000
          H  1.00000  BR 1.00000

  SPECIES BEING CONSIDERED IN THIS SYSTEM
 (CONDENSED PHASE MAY HAVE NAME LISTED SEVERAL TIMES)
  LAST thermo.inp UPDATE:    9/09/04

  g 3/97  *Br              tpis89  BrCL             tpis89  BrF            
  tpis89  BrF3             tpis89  BrF5             j 3/96  BrO            
  j 3/96  OBrO             j 3/96  BrOO             j 3/96  BrO3           
  tpis89  Br2              j 3/96  BrBrO            j 3/96  BrOBr          
  g 7/97  *CL              tpis89  CLF              tpis89  CLF3           
  tpis89  CLF5             tpis89  CLO              g 7/93  CLO2           
  tpis89  CL2              tpis89  CL2O             g 5/97  *F             
  j 9/95  FO               j 9/95  FO2,FOO          j 9/95  FO2,OFO        
  tpis89  F2               g 4/99  F2O              j 9/95  F2O2           
  j 6/76  FS2F             g 6/97  *H               tpis89  HBr            
  tpis89  HCL              tpis89  *HF              g10/01  HNO            
  tpis89  HNO2             g 5/99  HNO3             g 1/01  HOCL           
  tpis89  HOF              g 4/02  HO2              j 6/72  HSO3F          
  tpis78  *H2              tpis89  H2F2             g 8/89  H2O            
  g 6/99  H2O2             g 4/01  H2S              tpis89  H2SO4          
  tpis89  H3F3             tpis89  H4F4             tpis89  H5F5           
  tpis89  H6F6             tpis89  H7F7             g 5/97  *He            
  g 6/97  *Mg              tpis96  MgBr             tpis96  MgBr2          
  tpis96  MgCL             tpis96  MgCL2            tpis96  MgF            
  tpis96  MgF2             tpis96  MgH              j 3/64  MgN            
  tpis96  *MgO             tpis96  MgOH             tpis96  Mg(OH)2        
  tpis96  MgS              tpis96  Mg2              j12/75  Mg2F4          
  g 5/97  *N               tpis89  NF               g 4/99  NF2            
  g 4/99  NF3              g 4/99  *NH              tpis89  NHF            
  tpis89  NHF2             g 3/01  NH2              tpis89  NH2F           
  tpis89  NH3              tpis89  NH2OH            tpis89  *NO            
  g 4/99  NOCL             g 4/99  NOF              tpis89  NOF3           
  g 4/99  NO2              g 4/99  NO2CL            g 4/99  NO2F           
  j12/64  NO3              tpis89  NO3F             tpis78  *N2            
  tpis89  N2F2             tpis89  N2F4             g 5/99  N2H2           
  tpis89  NH2NO2           g 4/99  N2H4             g 4/99  N2O            
  g 4/99  N2O3             tpis89  N2O4             g 4/99  N2O5           
  tpis89  N3               g 4/99  N3H              g 5/97  *O             
  g 4/02  *OH              tpis89  *O2              g 8/01  O3             
  g 5/97  *S               j 6/78  SCL              j 6/78  SCL2           
  tpis89  SF               tpis89  SF2              tpis89  SF3            
  tpis89  SF4              tpis89  SF5              tpis89  SF6            
  g10/01  SH               tpis89  SN               tpis89  SO             
  tpis89  SOF2             tpis89  SO2              j 6/71  SO2CL2         
  j 6/71  SO2FCL           tpis89  SO2F2            tpis89  SO3            
  tpis89  S2               g12/00  S2CL2            j 6/76  S2F2           
  tpis89  S2O              tpis89  S3               tpis89  S4             
  tpis89  S5               tpis89  S6               tpis89  S7             
  tpis89  S8               g 8/97  *Si              tpis91  SiBr           
  tpis91  SiBr2            tpis91  SiBr3            tpis91  SiBr4          
  tpis91  SiCL             tpis91  SiCL2            tpis91  SiCL3          
  tpis91  SiCL4            tpis91  SiF              tpis91  SiFCL          
  tpis91  SiF2             tpis91  SiF3             g 6/01  SiF4           
  tpis91  SiH              j12/76  SiHBr3           tpis91  SiHCL          
  j12/76  SiHCL3           tpis91  SiHF             j 6/76  SiHF3          
  g 3/01  SiH2             j12/76  SiH2Br2          j12/76  SiH2CL2        
  j 6/76  SiH2F2           g 3/99  SiH3             j12/76  SiH3Br         
  j12/76  SiH3CL           j 6/76  SiH3F            tpis91  SiH4           
  g 5/99  SiN              tpis91  SiO              tpis91  SiO2           
  tpis91  SiS              tpis91  SiS2             tpis91  Si2            
  g 6/01  Si2F6            j 3/67  Si2N             g 7/95  Si3            
  g 8/01  Br2(cr)          g 8/01  Br2(L)           g 8/01  Br2(L)         
  g11/99  H2O(cr)          g 8/01  H2O(L)           g 8/01  H2O(L)         
  j 9/77  H2SO4(L)         srd 93  Mg(cr)           srd 93  Mg(cr)         
  srd 93  Mg(L)            tpis96  MgBr2(cr)        tpis96  MgBr2(L)       
  tpis96  MgCL2(cr)        tpis96  MgCL2(cr)        tpis96  MgCL2(L)       
  tpis96  MgF2(cr)         tpis96  MgF2(cr)         tpis96  MgF2(L)        
  tpis96  MgH2(b)          tpis96  MgH2(L)          tpis96  MgO(cr)        
  tpis96  MgO(cr)          tpis96  MgO(L)           tpis96  Mg(OH)2(cr)    
  tpis96  Mg(OH)2(cr)      tpis96  Mg(OH)2(L)       tpis96  MgS(cr)        
  tpis96  MgS(cr)          tpis96  MgS(L)           tpis96  MgSO4(II)      
  tpis96  MgSO4(II)        tpis96  MgSO4(I)         tpis96  MgSO4(L)       
  j12/67  MgSiO3(I)        j12/67  MgSiO3(II)       j12/67  MgSiO3(III)    
  j12/67  MgSiO3(L)        g11/00  Mg2SiO4(cr)      g11/00  Mg2SiO4(cr)    
  g11/00  Mg2SiO4(L)       tpis96  Mg3N2(cr)        j 9/65  NH4CL(II)      
  j 9/65  NH4CL(III)       j 9/65  NH4CL(III)       tpis89  NH4F(cr)       
  tpis89  NH4F(cr)         tpis89  NH4F(L)          tpis89  S(a)           
  tpis89  S(b)             tpis89  S(L)             tpis89  S(L)           
  tpis89  S(L)             tpis89  S(L)             tpis89  S(L)           
  j 6/78  SCL2(L)          j 6/78  S2CL2(L)         tpis91  Si(cr)         
  tpis91  Si(cr)           tpis91  Si(L)            tpis91  SiO2(a-qz)     
  tpis91  SiO2(b-qz)       tpis91  SiO2(b-crt)      tpis91  SiO2(L)        
  tpis91  SiS(cr)          tpis91  SiS(L)           tpis91  SiS2(cr)       
  tpis91  SiS2(cr)         tpis91  SiS2(L)          g 7/95  Si2N2O(cr)     
  g 7/95  Si2N2O(cr)       tpis91  Si3N4(cr)        tpis91  Si3N4(cr)      

 O/F =   0.000000

                       EFFECTIVE FUEL     EFFECTIVE OXIDANT        MIXTURE
 ENTHALPY                  h(2)/R              h(1)/R               h0/R
 (KG-MOL)(K)/KG        0.00000000E+00      0.00000000E+00      0.00000000E+00

 KG-FORM.WT./KG             bi(2)               bi(1)               b0i
  *H                   0.76107833E+00      0.00000000E+00      0.76107833E+00
  *He                  0.51353297E-01      0.00000000E+00      0.51353297E-01
  *N                   0.17269924E-03      0.00000000E+00      0.17269924E-03
  *S                   0.14302844E-03      0.00000000E+00      0.14302844E-03
  *O                   0.37278690E-03      0.00000000E+00      0.37278690E-03
  *F                   0.27616662E-06      0.00000000E+00      0.27616662E-06
  *Mg                  0.30279426E-03      0.00000000E+00      0.30279426E-03
  *Si                  0.24611543E-03      0.00000000E+00      0.24611543E-03
  *CL                  0.24040951E-05      0.00000000E+00      0.24040951E-05
  *Br                  0.26361359E-08      0.00000000E+00      0.26361359E-08

 POINT ITN      T            H           HE          N           S 
                    O           F           MG          SI          CL
                    BR
   1   48     800.000      -5.598     -12.288     -16.939     -20.332
                 -55.536     -79.148       1.029      -0.842     -51.605
                 -49.549
 ADD  MgO(cr)        
   1   11     800.000      -5.597     -12.288     -16.939     -20.331
                 -52.188     -78.562     -43.360      -0.853     -42.753
                 -41.484
 ADD  SiO2(a-qz)     
   1    5     800.000      -5.597     -12.288     -16.940     -20.331
                 -71.637     -78.407     -23.911      -1.009     -42.602
                 -41.334
 ADD  Si2N2O(cr)     
   1    5     800.000      -5.597     -12.288     -38.374     -20.331
                 -71.151     -77.438     -24.398      -1.981     -41.668
                 -40.423
 REMOVE  SiO2(a-qz)     
   1   16     800.000      -5.597     -12.288     -26.606     -20.331
                 -94.535     -78.086      -1.014      -2.056     -50.583
                 -48.526
 ADD  MgS(cr)        
   1   12     800.000      -5.597     -12.288     -46.053     -20.471
                 -55.574     -77.330     -39.975      -2.090     -41.561
                 -40.323
 ADD  SiO2(a-qz)     
   1    9     800.000      -5.596     -12.289     -36.667     -34.911
                 -70.013     -75.192     -25.535      -4.257     -39.785
                 -38.741
 ADD  Mg2SiO4(cr)    

 SINGULAR MATRIX, ITERATION  0  VARIABLE 15(EQLBRM)

 TRY REMOVING CONDENSED SPECIES (EQLBRM)
 REMOVE  SiO2(a-qz)     
   1    4     800.000      -5.596     -12.289     -34.380     -39.651
                 -74.753     -75.272     -20.796      -4.174     -40.880
                 -39.183
 ADD  MgF2(cr)       
   1    2     800.000      -5.596     -12.289     -34.396     -39.661
                 -74.764     -79.068     -20.785      -4.152     -40.887
                 -39.191
 ADD  MgCL2(cr)      
   1    3     800.000      -5.596     -12.289     -34.427     -39.682
                 -74.785     -79.079     -20.764      -4.111     -45.084
                 -39.208
   2    3     850.000      -5.665     -12.385     -32.312     -37.611
                 -70.453     -74.667     -19.988      -4.436     -42.806
                 -38.538
   3    3     900.000      -5.731     -12.480     -30.441     -35.780
                 -66.612     -70.757     -19.309      -4.734     -40.793
                 -38.033
   4    2     950.000      -5.796     -12.571     -28.776     -34.152
                 -63.184     -67.267     -18.711      -5.009     -39.001
                 -37.662
 PHASE CHANGE, REPLACE  MgCL2(cr)      WITH  MgCL2(L)       
   5    2    1000.000      -5.859     -12.660     -27.285     -32.695
                 -60.107     -64.135     -18.180      -5.262     -37.432
                 -37.390
   6    2    1050.000      -5.920     -12.747     -25.946     -31.387
                 -57.332     -61.310     -17.705      -5.494     -36.116
                 -37.184
   7    1    1100.000      -5.980     -12.831     -24.738     -30.207
                 -54.818     -58.750     -17.278      -5.708     -34.929
                 -37.013
 REMOVE  MgCL2(L)       
   7    0    1100.000      -5.980     -12.831     -24.734     -30.205
                 -54.815     -58.748     -17.281      -5.713     -35.291
                 -37.021
 REMOVE  MgF2(cr)       
   7    2    1100.000      -5.980     -12.831     -24.737     -30.207
                 -54.817     -59.015     -17.279      -5.709     -35.491
                 -37.022
   8    2    1150.000      -6.038     -12.912     -23.642     -29.138
                 -52.529     -57.166     -16.894      -5.906     -34.953
                 -36.889




               THERMODYNAMIC EQUILIBRIUM PROPERTIES AT ASSIGNED

                           TEMPERATURE AND PRESSURE

 CASE = saturn         

             REACTANT                       MOLES         ENERGY      TEMP
                                                         KJ/KG-MOL      K
 NAME        H2                           1.0000000         0.000      0.000
 NAME        He                           0.1350000         0.000      0.000
 NAME        N2                           0.0002270         0.000      0.000
 NAME        H2S                          0.0003760         0.000      0.000
 NAME        O2                           0.0004900         0.000      0.000
 NAME        HF                           0.0000007         0.000      0.000
 NAME        Mg                           0.0007960         0.000      0.000
 NAME        Si                           0.0006470         0.000      0.000
 NAME        HCL                          0.0000063         0.000      0.000
 NAME        HBr                          0.0000000         0.000      0.000

 O/F=    0.00000  %FUEL=  0.000000  R,EQ.RATIO=*********  PHI,EQ.RATIO= 0.000000

 THERMODYNAMIC PROPERTIES

 P, BAR            369.74   369.74   369.74   369.74   369.74   369.74   369.74   369.74
 T, K              800.00   850.00   900.00   950.00  1000.00  1050.00  1100.00  1150.00
 RHO, KG/CU M    1.2871 1 1.2114 1 1.1441 1 1.0839 1 1.0297 1 9.8063 0 9.3605 0 8.9535 0
 H, KJ/KG         5853.81  6473.49  7095.51  7720.25  8348.24  8979.67  9614.41  10252.9
 U, KJ/KG         2981.09  3421.23  3863.71  4308.89  4757.34  5209.22  5664.42  6123.37
 G, KJ/KG        -32841.2 -35278.6 -37752.6 -40261.1 -42802.7 -45375.8 -47979.0 -50611.2
 S, KJ/(KG)(K)    48.3688  49.1201  49.8312  50.5067  51.1509  51.7671  52.3576  52.9253

 M, (1/n)           2.315    2.315    2.315    2.315    2.315    2.315    2.315    2.315
 MW, MOL WT         2.314    2.314    2.314    2.314    2.314    2.314    2.314    2.314
 (dLV/dLP)t      -1.00000 -1.00000 -1.00000 -1.00000 -1.00000 -1.00000 -1.00000 -1.00000
 (dLV/dLT)p        1.0000   1.0000   1.0000   1.0000   1.0000   1.0000   1.0000   1.0000
 Cp, KJ/(KG)(K)   12.3724  12.4160  12.4661  12.5249  12.5954  12.6635  12.7314  12.8091
 GAMMAs            1.4089   1.4069   1.4046   1.4019   1.3988   1.3958   1.3929   1.3895
 SON VEL,M/SEC     2011.8   2072.2   2130.6   2186.9   2241.2   2294.1   2345.6   2395.4

 MOLE FRACTIONS

 *Br             4.292-18 2.484-17 1.090-16 3.807-16 1.110-15 2.825-15 6.480-15 1.369-14
 *CL             9.595-22 3.040-20 6.547-19 1.018-17 1.160-16 9.521-16 3.664-15 1.219-14
 *H              1.414-13 1.000-12 5.706-12 2.716-11 1.108-10 3.959-10 1.262 -9 3.642 -9
 HBr             1.8795-9 2.8584-9 3.8165-9 4.5876-9 5.1152-9 5.4497-9 5.6577-9 5.7889-9
 HCL             5.7702-9 2.6683-8 1.0357-7 3.4698-7 9.9118-7 2.3224-6 2.8556-6 3.3490-6
 *HF             1.340-12 1.054-11 6.561-11 3.355-10 1.452 -9 5.439 -9 1.380 -8 2.535 -8
 *H2             8.8041-1 8.8041-1 8.8041-1 8.8041-1 8.8041-1 8.8041-1 8.8041-1 8.8040-1
 H2O             2.494-14 2.306-13 1.655-12 9.613-12 4.659-11 1.931-10 7.003-10 2.257 -9
 H2S             1.305-12 9.008-12 4.991-11 2.300-10 9.054-10 3.111 -9 9.516 -9 2.627 -8
 *He             1.1882-1 1.1882-1 1.1882-1 1.1882-1 1.1882-1 1.1882-1 1.1882-1 1.1882-1
 *Mg             9.219-14 8.102-13 5.580-12 3.131-11 1.476-10 6.010-10 2.153 -9 6.910 -9
 MgBr            2.928-16 1.558-15 6.320-15 2.049-14 5.574-14 1.332-13 2.879-13 5.762-13
 MgBr2           9.994-10 7.293-10 4.668-10 2.699-10 1.473-10 7.958-11 4.374-11 2.482-11
 MgCL            1.884-15 2.919-14 3.313-13 2.893-12 1.956-11 9.995-11 2.497-10 5.599-10
 MgCL2           4.392-10 3.518 -9 2.217 -8 1.142 -7 4.632 -7 1.354 -6 1.157 -6 9.473 -7
 MgF             2.694-19 7.287-18 1.358-16 1.849-15 1.931-14 1.606-13 8.419-13 3.003-12
 MgF2            5.367-19 1.549-17 3.056-16 4.375-15 4.771-14 4.121-13 1.711-12 3.877-12
 MgH             4.512-19 8.118-18 1.057-16 1.048-15 8.252-15 5.341-14 2.917-13 1.376-12
 NH3             1.018-11 5.621-11 2.550-10 9.817-10 3.286 -9 9.735 -9 2.601 -8 6.340 -8
 *N2             1.233-22 9.747-21 4.712-19 1.507-17 3.385-16 5.595-15 7.116-14 7.179-13
 SH              1.989-21 6.003-20 1.236-18 1.846-17 2.095-16 1.878-15 1.373-14 8.407-14
 SiBr            6.761-20 5.377-19 3.124-18 1.399-17 5.099-17 1.592-16 4.398-16 1.104-15
 SiCL            7.595-21 2.238-19 4.506-18 6.580-17 7.075-16 5.520-15 2.028-14 6.491-14
 SiCL2           7.232-18 1.521-16 2.262-15 2.511-14 2.032-13 1.112-12 1.680-12 2.320-12
 SiCL4           5.062-21 1.515-19 3.072-18 4.485-17 4.322-16 2.287-15 1.082-15 4.895-16
 SiFCL           5.311-19 1.398-17 2.536-16 3.366-15 3.311-14 2.376-13 6.186-13 1.135-12
 SiF2            9.763-21 3.214-19 7.123-18 1.131-16 1.353-15 1.274-14 5.718-14 1.395-13
 SiF4            1.365-20 4.322-19 9.226-18 1.413-16 1.634-15 1.484-14 3.781-14 3.398-14
 SiH             1.154-20 2.344-19 3.402-18 3.720-17 3.201-16 2.250-15 1.326-14 6.724-14
 SiHCL           1.040-16 1.387-15 1.379-14 1.071-13 6.524-13 3.044-12 7.012-12 1.465-11
 SiHCL3          7.118-16 8.416-15 7.491-14 5.249-13 2.711-12 8.989-12 4.897-12 2.595-12
 SiHF            5.649-18 9.195-17 1.092-15 9.955-15 7.251-14 4.370-13 1.712-12 4.695-12
 SiHF3           3.063-16 4.145-15 4.163-14 3.254-13 2.057-12 1.085-11 2.205-11 2.052-11
 SiH2            3.103-16 2.653-15 1.784-14 9.800-14 4.539-13 1.823-12 6.459-12 2.059-11
 SiH2Br2         5.906-14 3.851-14 2.235-14 1.186-14 6.002-15 3.041-15 1.581-15 8.559-16
 SiH2CL2         7.951-12 4.062-11 1.719-10 6.213-10 1.835 -9 4.042 -9 2.675 -9 1.743 -9
 SiH2F2          4.729-12 2.629-11 1.200-10 4.644-10 1.563 -9 4.675 -9 7.419 -9 7.013 -9
 SiH3            1.552-13 7.099-13 2.739-12 9.162-12 2.717-11 7.296-11 1.794-10 4.100-10
 SiH3Br          2.221 -9 1.782 -9 1.349 -9 9.767-10 6.915-10 4.911-10 3.537-10 2.608-10
 SiH3CL          2.0477-8 4.6572-8 9.6288-8 1.8376-7 3.1703-7 4.7326-7 3.8756-7 3.1547-7
 SiH3F           1.4695-8 3.4985-8 7.5353-8 1.4922-7 2.7550-7 4.8032-7 6.1025-7 5.9952-7
 SiH4            2.1745-5 2.1716-5 2.1668-5 2.1609-5 2.1577-5 2.1643-5 2.1760-5 2.1983-5
 SiO             1.848-19 4.933-18 9.106-17 1.232-15 1.280-14 1.062-13 7.260-13 4.194-12
 SiS             4.703-17 8.263-16 1.051-14 1.018-13 7.826-13 4.945-12 2.635-11 1.212-10
 MgCL2(cr)       2.7676-6 2.7410-6 2.6589-6 2.4009-6 0.0000 0 0.0000 0 0.0000 0 0.0000 0
 MgCL2(L)        0.0000 0 0.0000 0 0.0000 0 0.0000 0 1.6620-6 2.4851-8 0.0000 0 0.0000 0
 MgF2(cr)        3.1213-7 3.0196-7 2.8165-7 2.4424-7 1.7944-7 7.1913-8 0.0000 0 0.0000 0
 MgO(cr)         7.0408-5 7.0476-5 7.0644-5 7.1051-5 7.1961-5 7.3668-5 7.4259-5 7.4684-5
 MgS(cr)         3.3092-4 3.3092-4 3.3092-4 3.3092-4 3.3092-4 3.3092-4 3.3091-4 3.3090-4
 Mg2SiO4(cr)     1.4808-4 1.4806-4 1.4802-4 1.4792-4 1.4769-4 1.4727-4 1.4712-4 1.4702-4
 Si2N2O(cr)      1.9979-4 1.9979-4 1.9979-4 1.9979-4 1.9979-4 1.9978-4 1.9977-4 1.9975-4

  * THERMODYNAMIC PROPERTIES FITTED TO 20000.K

    PRODUCTS WHICH WERE CONSIDERED BUT WHOSE MOLE FRACTIONS
    WERE LESS THAN 1.000000E-15 FOR ALL ASSIGNED CONDITIONS

 BrCL            BrF             BrF3            BrF5            BrO            
 OBrO            BrOO            BrO3            Br2             BrBrO          
 BrOBr           CLF             CLF3            CLF5            CLO            
 CLO2            CL2             CL2O            *F              FO             
 FO2,FOO         FO2,OFO         F2              F2O             F2O2           
 FS2F            HNO             HNO2            HNO3            HOCL           
 HOF             HO2             HSO3F           H2F2            H2O2           
 H2SO4           H3F3            H4F4            H5F5            H6F6           
 H7F7            MgN             *MgO            MgOH            Mg(OH)2        
 MgS             Mg2             Mg2F4           *N              NF             
 NF2             NF3             *NH             NHF             NHF2           
 NH2             NH2F            NH2OH           *NO             NOCL           
 NOF             NOF3            NO2             NO2CL           NO2F           
 NO3             NO3F            N2F2            N2F4            N2H2           
 NH2NO2          N2H4            N2O             N2O3            N2O4           
 N2O5            N3              N3H             *O              *OH            
 *O2             O3              *S              SCL             SCL2           
 SF              SF2             SF3             SF4             SF5            
 SF6             SN              SO              SOF2            SO2            
 SO2CL2          SO2FCL          SO2F2           SO3             S2             
 S2CL2           S2F2            S2O             S3              S4             
 S5              S6              S7              S8              *Si            
 SiBr2           SiBr3           SiBr4           SiCL3           SiF            
 SiF3            SiHBr3          SiN             SiO2            SiS2           
 Si2             Si2F6           Si2N            Si3             Br2(cr)        
 Br2(L)          H2O(cr)         H2O(L)          H2SO4(L)        Mg(cr)         
 Mg(L)           MgBr2(cr)       MgBr2(L)        MgF2(L)         MgH2(b)        
 MgH2(L)         MgO(L)          Mg(OH)2(cr)     Mg(OH)2(L)      MgS(L)         
 MgSO4(II)       MgSO4(I)        MgSO4(L)        MgSiO3(I)       MgSiO3(II)     
 MgSiO3(III)     MgSiO3(L)       Mg2SiO4(L)      Mg3N2(cr)       NH4CL(II)      
 NH4CL(III)      NH4F(cr)        NH4F(L)         S(a)            S(b)           
 S(L)            SCL2(L)         S2CL2(L)        Si(cr)          Si(L)          
 SiO2(a-qz)      SiO2(b-qz)      SiO2(b-crt)     SiO2(L)         SiS(cr)        
 SiS(L)          SiS2(cr)        SiS2(L)         Si3N4(cr)      






 POINT ITN      T            H           HE          N           S 
                    O           F           MG          SI          CL
                    BR
   1    2    1200.000      -6.095     -12.992     -22.644     -28.166
                 -50.438     -55.490     -16.546      -6.090     -34.486
                 -36.777
   2    2    1250.000      -6.150     -13.069     -21.733     -27.279
                 -48.521     -53.972     -16.229      -6.263     -34.080
                 -36.682

 SINGULAR MATRIX, ITERATION  1  VARIABLE 10(EQLBRM)
   3   23     800.000      -5.492     -12.080     -34.271     -39.578
                 -74.680     -79.027     -20.868      -4.320     -45.032
                 -38.773
   4    3     850.000      -5.560     -12.177     -32.155     -37.507
                 -70.349     -74.615     -20.093      -4.645     -42.754
                 -38.414
   5    3     900.000      -5.627     -12.271     -30.285     -35.676
                 -66.508     -70.704     -19.413      -4.943     -40.741
                 -37.916
   6    2     950.000      -5.692     -12.362     -28.619     -34.047
                 -63.080     -67.215     -18.815      -5.217     -38.949
                 -37.550
 PHASE CHANGE, REPLACE  MgCL2(cr)      WITH  MgCL2(L)       
   7    2    1000.000      -5.755     -12.451     -27.129     -32.591
                 -60.003     -64.083     -18.284      -5.470     -37.380
                 -37.281
   8    2    1050.000      -5.816     -12.538     -25.790     -31.283
                 -57.228     -61.258     -17.809      -5.702     -36.064
                 -37.077




               THERMODYNAMIC EQUILIBRIUM PROPERTIES AT ASSIGNED

                           TEMPERATURE AND PRESSURE

 CASE = saturn         

             REACTANT                       MOLES         ENERGY      TEMP
                                                         KJ/KG-MOL      K
 NAME        H2                           1.0000000         0.000      0.000
 NAME        He                           0.1350000         0.000      0.000
 NAME        N2                           0.0002270         0.000      0.000
 NAME        H2S                          0.0003760         0.000      0.000
 NAME        O2                           0.0004900         0.000      0.000
 NAME        HF                           0.0000007         0.000      0.000
 NAME        Mg                           0.0007960         0.000      0.000
 NAME        Si                           0.0006470         0.000      0.000
 NAME        HCL                          0.0000063         0.000      0.000
 NAME        HBr                          0.0000000         0.000      0.000

 O/F=    0.00000  %FUEL=  0.000000  R,EQ.RATIO=*********  PHI,EQ.RATIO= 0.000000

 THERMODYNAMIC PROPERTIES

 P, BAR            369.74   369.74   455.55   455.55   455.55   455.55   455.55   455.55
 T, K             1200.00  1250.00   800.00   850.00   900.00   950.00  1000.00  1050.00
 RHO, KG/CU M    8.5805 0 8.2373 0 1.5858 1 1.4925 1 1.4096 1 1.3354 1 1.2686 1 1.2082 1
 H, KJ/KG         10895.4  11542.0  5853.81  6473.49  7095.51  7720.24  8348.23  8979.64
 U, KJ/KG         6586.29  7053.34  2981.09  3421.23  3863.71  4308.89  4757.33  5209.19
 G, KJ/KG        -53271.2 -55958.0 -32241.7 -34641.6 -37078.1 -39549.2 -42053.3 -44588.9
 S, KJ/(KG)(K)    53.4721  54.0000  47.6193  48.3707  49.0817  49.7573  50.4015  51.0176

 M, (1/n)           2.315    2.315    2.315    2.315    2.315    2.315    2.315    2.315
 MW, MOL WT         2.314    2.314    2.314    2.314    2.314    2.314    2.314    2.314
 (dLV/dLP)t      -1.00000 -1.00000 -1.00000 -1.00000 -1.00000 -1.00000 -1.00000 -1.00000
 (dLV/dLT)p        1.0000   1.0000   1.0000   1.0000   1.0000   1.0000   1.0000   1.0000
 Cp, KJ/(KG)(K)   12.8902  12.9737  12.3724  12.4160  12.4661  12.5248  12.5952  12.6630
 GAMMAs            1.3861   1.3827   1.4089   1.4069   1.4046   1.4019   1.3988   1.3959
 SON VEL,M/SEC     2444.0   2491.3   2011.8   2072.2   2130.6   2186.9   2241.2   2294.1

 MOLE FRACTIONS

 *Br             2.703-14 5.040-14 5.378-18 2.283-17 9.954-17 3.457-16 1.004-15 2.551-15
 *CL             3.595-14 9.541-14 8.205-22 2.600-20 5.598-19 8.706-18 9.920-17 8.141-16
 *H              9.634 -9 2.360 -8 1.274-13 9.010-13 5.140-12 2.447-11 9.980-11 3.567-10
 HBr             5.8737-9 5.9302-9 2.6144-9 2.9152-9 3.8678-9 4.6246-9 5.1383-9 5.4632-9
 HCL             3.7919-6 4.1683-6 5.4768-9 2.5325-8 9.8295-8 3.2930-7 9.4067-7 2.2041-6
 *HF             4.358 -8 7.021 -8 1.272-12 1.000-11 6.227-11 3.185-10 1.378 -9 5.162 -9
 *H2             8.8040-1 8.8040-1 8.8041-1 8.8041-1 8.8041-1 8.8041-1 8.8041-1 8.8041-1
 H2O             6.577 -9 1.752 -8 2.768-14 2.559-13 1.837-12 1.067-11 5.170-11 2.143-10
 H2S             6.642 -8 1.553 -7 1.449-12 9.998-12 5.539-11 2.552-10 1.005 -9 3.453 -9
 *He             1.1882-1 1.1882-1 1.1882-1 1.1882-1 1.1882-1 1.1882-1 1.1882-1 1.1882-1
 *Mg             2.011 -8 5.377 -8 6.741-14 5.924-13 4.081-12 2.290-11 1.080-10 4.396-10
 MgBr            1.081-12 1.920-12 3.305-16 1.290-15 5.199-15 1.677-14 4.546-14 1.084-13
 MgBr2           1.459-11 8.890-12 1.742 -9 6.834-10 4.320-10 2.471-10 1.339-10 7.207-11
 MgCL            1.148 -9 2.180 -9 1.452-15 2.249-14 2.552-13 2.229-12 1.507-11 7.701-11
 MgCL2           7.557 -7 5.912 -7 3.564-10 2.855 -9 1.800 -8 9.272 -8 3.759 -7 1.099 -6
 MgF             9.482-12 2.674-11 2.075-19 5.614-18 1.046-16 1.425-15 1.487-14 1.238-13
 MgF2            7.973-12 1.485-11 4.356-19 1.258-17 2.481-16 3.551-15 3.872-14 3.344-13
 MgH             5.699-12 2.108-11 3.662-19 6.589-18 8.580-17 8.509-16 6.700-15 4.336-14
 MgOH            1.975-15 1.246-14 1.533-25 9.295-24 3.556-22 9.233-21 1.725-19 2.429-18
 MgS             5.784-15 3.618-14 4.558-25 2.709-23 1.017-21 2.596-20 4.775-19 6.631-18
 NH2             3.026-15 1.668-14 1.540-24 7.044-23 2.097-21 4.350-20 6.636-19 7.760-18
 NH3             1.430 -7 3.012 -7 1.322-11 7.296-11 3.310-10 1.274 -9 4.263 -9 1.263 -8
 *N2             5.946-12 4.130-11 1.368-22 1.082-20 5.228-19 1.671-17 3.754-16 6.206-15
 SH              4.412-13 2.020-12 1.989-21 6.003-20 1.236-18 1.845-17 2.095-16 1.877-15
 *Si             4.914-16 2.719-15 1.836-25 7.837-24 2.203-22 4.356-21 6.392-20 7.288-19
 SiBr            2.553-15 5.507-15 6.876-20 4.010-19 2.316-18 1.032-17 3.747-17 1.167-16
 SiCL            1.845-13 4.739-13 5.271-21 1.554-19 3.128-18 4.568-17 4.912-16 3.832-15
 SiCL2           2.989-12 3.636-12 5.288-18 1.113-16 1.654-15 1.836-14 1.486-13 8.132-13
 SiCL4           2.177-16 9.605-17 4.108-21 1.230-19 2.493-18 3.640-17 3.508-16 1.856-15
 SiF             5.512-16 2.185-15 1.685-25 9.442-24 3.367-22 8.205-21 1.448-19 1.942-18
 SiFCL           1.910-12 2.965-12 3.884-19 1.022-17 1.855-16 2.462-15 2.422-14 1.737-13
 SiF2            3.067-13 6.081-13 7.139-21 2.351-19 5.209-18 8.270-17 9.899-16 9.315-15
 SiF4            2.914-14 2.335-14 1.108-20 3.508-19 7.488-18 1.147-16 1.326-15 1.204-14
 SiH             2.978-13 1.173-12 8.441-21 1.714-19 2.488-18 2.721-17 2.341-16 1.646-15
 SiHCL           2.817-11 5.052-11 8.014-17 1.068-15 1.062-14 8.253-14 5.028-13 2.346-12
 SiHCL3          1.362-12 7.134-13 6.087-16 7.197-15 6.406-14 4.489-13 2.319-12 7.687-12
 SiHF            1.167-11 2.648-11 4.352-18 7.084-17 8.417-16 7.671-15 5.588-14 3.367-13
 SiHF3           1.842-11 1.572-11 2.619-16 3.545-15 3.560-14 2.783-13 1.759-12 9.280-12
 SiH2            5.962-11 1.589-10 2.518-16 2.154-15 1.448-14 7.957-14 3.686-13 1.480-12
 SiH2Br2         4.828-16 2.841-16 1.143-13 4.006-14 2.296-14 1.205-14 6.059-15 3.058-15
 SiH2CL2         1.129 -9 7.316-10 7.163-12 3.660-11 1.549-10 5.598-10 1.653 -9 3.642 -9
 SiH2F2          6.480 -9 5.797 -9 4.261-12 2.369-11 1.081-10 4.185-10 1.408 -9 4.213 -9
 SiH3            8.757-10 1.765 -9 1.398-13 6.396-13 2.469-12 8.257-12 2.449-11 6.576-11
 SiH3Br          1.964-10 1.512-10 3.089 -9 1.818 -9 1.368 -9 9.850-10 6.950-10 4.925-10
 SiH3CL          2.5619-7 2.0821-7 1.9437-8 4.4208-8 9.1410-8 1.7447-7 3.0102-7 4.4935-7
 SiH3F           5.8235-7 5.5707-7 1.3949-8 3.3209-8 7.1535-8 1.4167-7 2.6160-7 4.5605-7
 SiH4            2.2231-5 2.2537-5 2.1746-5 2.1719-5 2.1674-5 2.1618-5 2.1588-5 2.1653-5
 SiO             2.088-11 9.131-11 1.351-19 3.608-18 6.659-17 9.007-16 9.359-15 7.770-14
 SiS             4.896-10 1.765 -9 3.439-17 6.042-16 7.685-15 7.444-14 5.724-13 3.617-12
 SiS2            1.539-15 9.782-15 8.810-26 5.573-24 2.211-22 5.920-21 1.135-19 1.634-18
 MgCL2(cr)       0.0000 0 0.0000 0 2.7684-6 2.7435-6 2.6682-6 2.4360-6 0.0000 0 0.0000 0
 MgCL2(L)        0.0000 0 0.0000 0 0.0000 0 0.0000 0 0.0000 0 0.0000 0 1.7827-6 3.5149-7
 MgF2(cr)        0.0000 0 0.0000 0 3.1250-7 3.0285-7 2.8358-7 2.4807-7 1.8659-7 8.4651-8
 MgO(cr)         7.5085-5 7.5457-5 7.0407-5 7.0471-5 7.0630-5 7.1016-5 7.1879-5 7.3499-5
 MgS(cr)         3.3086-4 3.3077-4 3.3092-4 3.3092-4 3.3092-4 3.3092-4 3.3092-4 3.3092-4
 Mg2SiO4(cr)     1.4693-4 1.4685-4 1.4808-4 1.4806-4 1.4802-4 1.4793-4 1.4771-4 1.4731-4
 Si2N2O(cr)      1.9972-4 1.9964-4 1.9979-4 1.9979-4 1.9979-4 1.9979-4 1.9978-4 1.9978-4

  * THERMODYNAMIC PROPERTIES FITTED TO 20000.K

    PRODUCTS WHICH WERE CONSIDERED BUT WHOSE MOLE FRACTIONS
    WERE LESS THAN 1.000000E-15 FOR ALL ASSIGNED CONDITIONS

 BrCL            BrF             BrF3            BrF5            BrO            
 OBrO            BrOO            BrO3            Br2             BrBrO          
 BrOBr           CLF             CLF3            CLF5            CLO            
 CLO2            CL2             CL2O            *F              FO             
 FO2,FOO         FO2,OFO         F2              F2O             F2O2           
 FS2F            HNO             HNO2            HNO3            HOCL           
 HOF             HO2             HSO3F           H2F2            H2O2           
 H2SO4           H3F3            H4F4            H5F5            H6F6           
 H7F7            MgN             *MgO            Mg(OH)2         Mg2            
 Mg2F4           *N              NF              NF2             NF3            
 *NH             NHF             NHF2            NH2F            NH2OH          
 *NO             NOCL            NOF             NOF3            NO2            
 NO2CL           NO2F            NO3             NO3F            N2F2           
 N2F4            N2H2            NH2NO2          N2H4            N2O            
 N2O3            N2O4            N2O5            N3              N3H            
 *O              *OH             *O2             O3              *S             
 SCL             SCL2            SF              SF2             SF3            
 SF4             SF5             SF6             SN              SO             
 SOF2            SO2             SO2CL2          SO2FCL          SO2F2          
 SO3             S2              S2CL2           S2F2            S2O            
 S3              S4              S5              S6              S7             
 S8              SiBr2           SiBr3           SiBr4           SiCL3          
 SiF3            SiHBr3          SiN             SiO2            Si2            
 Si2F6           Si2N            Si3             Br2(cr)         Br2(L)         
 H2O(cr)         H2O(L)          H2SO4(L)        Mg(cr)          Mg(L)          
 MgBr2(cr)       MgBr2(L)        MgF2(L)         MgH2(b)         MgH2(L)        
 MgO(L)          Mg(OH)2(cr)     Mg(OH)2(L)      MgS(L)          MgSO4(II)      
 MgSO4(I)        MgSO4(L)        MgSiO3(I)       MgSiO3(II)      MgSiO3(III)    
 MgSiO3(L)       Mg2SiO4(L)      Mg3N2(cr)       NH4CL(II)       NH4CL(III)     
 NH4F(cr)        NH4F(L)         S(a)            S(b)            S(L)           
 SCL2(L)         S2CL2(L)        Si(cr)          Si(L)           SiO2(a-qz)     
 SiO2(b-qz)      SiO2(b-crt)     SiO2(L)         SiS(cr)         SiS(L)         
 SiS2(cr)        SiS2(L)         Si3N4(cr)      






 POINT ITN      T            H           HE          N           S 
                    O           F           MG          SI          CL
                    BR
   1    1    1100.000      -5.876     -12.622     -24.581     -30.103
                 -54.714     -58.697     -17.383      -5.916     -34.876
                 -36.908
 REMOVE  MgCL2(L)       
   1    0    1100.000      -5.876     -12.622     -24.578     -30.101
                 -54.712     -58.697     -17.384      -5.920     -35.207
                 -36.916
 REMOVE  MgF2(cr)       
   1    2    1100.000      -5.876     -12.622     -24.581     -30.103
                 -54.713     -58.912     -17.383      -5.917     -35.356
                 -36.916
   2    2    1150.000      -5.934     -12.704     -23.486     -29.035
                 -52.426     -57.063     -16.997      -6.113     -34.823
                 -36.783
   3    2    1200.000      -5.991     -12.783     -22.490     -28.063
                 -50.335     -55.388     -16.649      -6.297     -34.361
                 -36.672
   4    2    1250.000      -6.046     -12.860     -21.580     -27.177
                 -48.419     -53.872     -16.332      -6.467     -33.958
                 -36.577

 SINGULAR MATRIX, ITERATION  1  VARIABLE 10(EQLBRM)
   5   22     800.000      -5.393     -11.882     -34.122     -39.479
                 -74.582     -78.977     -20.967      -4.517     -44.983
                 -38.497
   6    3     850.000      -5.462     -11.979     -32.007     -37.408
                 -70.250     -74.566     -20.191      -4.842     -42.705
                 -38.297
   7    3     900.000      -5.528     -12.073     -30.137     -35.577
                 -66.410     -70.655     -19.512      -5.140     -40.691
                 -37.805
   8    2     950.000      -5.593     -12.165     -28.471     -33.949
                 -62.981     -67.165     -18.913      -5.414     -38.900
                 -37.444




               THERMODYNAMIC EQUILIBRIUM PROPERTIES AT ASSIGNED

                           TEMPERATURE AND PRESSURE

 CASE = saturn         

             REACTANT                       MOLES         ENERGY      TEMP
                                                         KJ/KG-MOL      K
 NAME        H2                           1.0000000         0.000      0.000
 NAME        He                           0.1350000         0.000      0.000
 NAME        N2                           0.0002270         0.000      0.000
 NAME        H2S                          0.0003760         0.000      0.000
 NAME        O2                           0.0004900         0.000      0.000
 NAME        HF                           0.0000007         0.000      0.000
 NAME        Mg                           0.0007960         0.000      0.000
 NAME        Si                           0.0006470         0.000      0.000
 NAME        HCL                          0.0000063         0.000      0.000
 NAME        HBr                          0.0000000         0.000      0.000

 O/F=    0.00000  %FUEL=  0.000000  R,EQ.RATIO=*********  PHI,EQ.RATIO= 0.000000

 THERMODYNAMIC PROPERTIES

 P, BAR            455.55   455.55   455.55   455.55   555.05   555.05   555.05   555.05
 T, K             1100.00  1150.00  1200.00  1250.00   800.00   850.00   900.00   950.00
 RHO, KG/CU M    1.1533 1 1.1031 1 1.0572 1 1.0149 1 1.9321 1 1.8185 1 1.7175 1 1.6271 1
 H, KJ/KG         9614.41  10252.9  10895.4  11542.0  5853.81  6473.49  7095.51  7720.24
 U, KJ/KG         5664.42  6123.37  6586.30  7053.35  2981.09  3421.23  3863.70  4308.89
 G, KJ/KG        -47154.6 -49749.3 -52371.8 -55021.2 -31674.1 -34038.6 -36439.6 -38875.3
 S, KJ/(KG)(K)    51.6082  52.1758  52.7227  53.2506  46.9099  47.6613  48.3724  49.0479

 M, (1/n)           2.315    2.315    2.315    2.315    2.315    2.315    2.315    2.315
 MW, MOL WT         2.314    2.314    2.314    2.314    2.314    2.314    2.314    2.314
 (dLV/dLP)t      -1.00000 -1.00000 -1.00000 -1.00000 -1.00000 -1.00000 -1.00000 -1.00000
 (dLV/dLT)p        1.0000   1.0000   1.0000   1.0000   1.0000   1.0000   1.0000   1.0000
 Cp, KJ/(KG)(K)   12.7314  12.8091  12.8903  12.9738  12.3724  12.4160  12.4661  12.5248
 GAMMAs            1.3929   1.3895   1.3861   1.3827   1.4089   1.4069   1.4046   1.4019
 SON VEL,M/SEC     2345.6   2395.4   2444.0   2491.3   2011.8   2072.2   2130.6   2186.9

 MOLE FRACTIONS

 *Br             5.846-15 1.234-14 2.436-14 4.541-14 5.818-18 2.105-17 9.125-17 3.154-16
 *CL             3.401-15 1.127-14 3.309-14 8.746-14 7.075-22 2.242-20 4.827-19 7.506-18
 *H              1.137 -9 3.281 -9 8.679 -9 2.126 -8 1.154-13 8.163-13 4.657-12 2.216-11
 HBr             5.6654-9 5.7931-9 5.8760-9 5.9312-9 3.1219-9 2.9682-9 3.9137-9 4.6572-9
 HCL             2.9426-6 3.4364-6 3.8741-6 4.2413-6 5.2128-9 2.4104-8 9.3554-8 3.1341-7
 *HF             1.379 -8 2.532 -8 4.349 -8 6.994 -8 1.210-12 9.520-12 5.926-11 3.031-10
 *H2             8.8041-1 8.8040-1 8.8040-1 8.8040-1 8.8041-1 8.8041-1 8.8041-1 8.8041-1
 H2O             7.769-10 2.504 -9 7.292 -9 1.941 -8 3.056-14 2.824-13 2.028-12 1.177-11
 H2S             1.056 -8 2.914 -8 7.364 -8 1.720 -7 1.599-12 1.104-11 6.114-11 2.816-10
 *He             1.1882-1 1.1882-1 1.1882-1 1.1882-1 1.1882-1 1.1882-1 1.1882-1 1.1882-1
 *Mg             1.575 -9 5.056 -9 1.472 -8 3.940 -8 5.013-14 4.405-13 3.035-12 1.703-11
 MgBr            2.341-13 4.684-13 8.785-13 1.562-12 3.239-16 1.078-15 4.318-15 1.386-14
 MgBr2           3.953-11 2.241-11 1.317-11 8.030-12 2.250 -9 6.419-10 4.007-10 2.271-10
 MgCL            2.089-10 4.667-10 9.531-10 1.804 -9 1.134-15 1.757-14 1.994-13 1.741-12
 MgCL2           1.107 -6 8.992 -7 7.115 -7 5.527 -7 2.925-10 2.343 -9 1.477 -8 7.610 -8
 MgF             6.831-13 2.435-12 7.688-12 2.167-11 1.621-19 4.386-18 8.173-17 1.113-15
 MgF2            1.539-12 3.486-12 7.160-12 1.331-11 3.575-19 1.032-17 2.036-16 2.915-15
 MgH             2.368-13 1.117-12 4.632-12 1.715-11 3.006-19 5.408-18 7.043-17 6.985-16
 MgOH            2.682-17 2.397-16 1.780-15 1.123-14 1.389-25 8.421-24 3.222-22 8.364-21
 MgS             7.229-17 6.386-16 4.695-15 2.936-14 3.741-25 2.223-23 8.349-22 2.131-20
 NH2             7.224-17 5.506-16 3.532-15 1.944-14 1.785-24 8.169-23 2.432-21 5.044-20
 NH3             3.374 -8 8.221 -8 1.853 -7 3.897 -7 1.692-11 9.339-11 4.236-10 1.630 -9
 *N2             7.888-14 7.952-13 6.575-12 4.554-11 1.510-22 1.194-20 5.769-19 1.844-17
 SH              1.373-14 8.401-14 4.406-13 2.016-12 1.989-21 6.002-20 1.236-18 1.845-17
 *Si             6.673-18 5.061-17 3.245-16 1.799-15 1.237-25 5.280-24 1.484-22 2.935-21
 SiBr            3.223-16 8.092-16 1.872-15 4.045-15 6.106-20 3.036-19 1.743-18 7.728-18
 SiCL            1.530-14 4.877-14 1.382-13 3.541-13 3.731-21 1.100-19 2.214-18 3.234-17
 SiCL2           1.449-12 1.986-12 2.538-12 3.069-12 3.932-18 8.273-17 1.230-15 1.366-14
 SiCL4           1.220-15 5.434-16 2.378-16 1.034-16 3.372-21 1.009-19 2.046-18 2.988-17
 SiF             1.658-17 8.831-17 4.031-16 1.599-15 1.192-25 6.683-24 2.383-22 5.808-21
 SiFCL           5.174-13 9.453-13 1.584-12 2.450-12 2.888-19 7.600-18 1.379-16 1.831-15
 SiF2            4.638-14 1.130-13 2.484-13 4.920-13 5.308-21 1.748-19 3.873-18 6.151-17
 SiF4            3.771-14 3.385-14 2.895-14 2.310-14 9.090-21 2.879-19 6.146-18 9.415-17
 SiH             9.706-15 4.924-14 2.183-13 8.614-13 6.276-21 1.275-19 1.851-18 2.024-17
 SiHCL           5.869-12 1.222-11 2.342-11 4.190-11 6.261-17 8.347-16 8.301-15 6.449-14
 SiHCL3          5.363-12 2.807-12 1.456-12 7.548-13 5.249-16 6.206-15 5.524-14 3.871-13
 SiHF            1.389-12 3.811-12 9.477-12 2.150-11 3.400-18 5.534-17 6.576-16 5.994-15
 SiHF3           2.202-11 2.047-11 1.835-11 1.561-11 2.259-16 3.057-15 3.070-14 2.400-13
 SiH2            5.247-12 1.674-11 4.851-11 1.296-10 2.067-16 1.768-15 1.189-14 6.533-14
 SiH2Br2         1.586-15 8.584-16 4.844-16 2.854-16 1.629-13 4.154-14 2.351-14 1.223-14
 SiH2CL2         2.843 -9 1.837 -9 1.182 -9 7.608-10 6.490-12 3.316-11 1.404-10 5.073-10
 SiH2F2          7.413 -9 7.004 -9 6.467 -9 5.779 -9 3.860-12 2.146-11 9.799-11 3.792-10
 SiH3            1.618-10 3.699-10 7.908-10 1.597 -9 1.267-13 5.795-13 2.237-12 7.483-12
 SiH3Br          3.545-10 2.613-10 1.969-10 1.519-10 3.689 -9 1.851 -9 1.384 -9 9.923-10
 SiH3CL          3.9971-7 3.2418-7 2.6238-7 2.1278-7 1.8501-8 4.2082-8 8.7019-8 1.6610-7
 SiH3F           6.1028-7 5.9958-7 5.8248-7 5.5738-7 1.3277-8 3.1612-8 6.8099-8 1.3488-7
 SiH4            2.1779-5 2.2015-5 2.2285-5 2.2635-5 2.1747-5 2.1721-5 2.1679-5 2.1625-5
 SiO             5.311-13 3.069-12 1.529-11 6.691-11 1.005-19 2.683-18 4.952-17 6.699-16
 SiS             1.928-11 8.871-11 3.585-10 1.293 -9 2.557-17 4.493-16 5.715-15 5.536-14
 SiS2            1.836-17 1.664-16 1.249-15 7.939-15 7.230-26 4.574-24 1.814-22 4.859-21
 MgCL2(cr)       0.0000 0 0.0000 0 0.0000 0 0.0000 0 2.7690-6 2.7457-6 2.6760-6 2.4648-6
 MgF2(cr)        0.0000 0 0.0000 0 0.0000 0 0.0000 0 3.1284-7 3.0365-7 2.8531-7 2.5151-7
 MgO(cr)         7.4357-5 7.4781-5 7.5179-5 7.5554-5 7.0406-5 7.0466-5 7.0617-5 7.0985-5
 MgS(cr)         3.3091-4 3.3089-4 3.3085-4 3.3075-4 3.3092-4 3.3092-4 3.3092-4 3.3092-4
 Mg2SiO4(cr)     1.4710-4 1.4700-4 1.4691-4 1.4684-4 1.4808-4 1.4807-4 1.4803-4 1.4794-4
 Si2N2O(cr)      1.9977-4 1.9975-4 1.9969-4 1.9959-4 1.9979-4 1.9979-4 1.9979-4 1.9979-4

  * THERMODYNAMIC PROPERTIES FITTED TO 20000.K

    PRODUCTS WHICH WERE CONSIDERED BUT WHOSE MOLE FRACTIONS
    WERE LESS THAN 1.000000E-15 FOR ALL ASSIGNED CONDITIONS

 BrCL            BrF             BrF3            BrF5            BrO            
 OBrO            BrOO            BrO3            Br2             BrBrO          
 BrOBr           CLF             CLF3            CLF5            CLO            
 CLO2            CL2             CL2O            *F              FO             
 FO2,FOO         FO2,OFO         F2              F2O             F2O2           
 FS2F            HNO             HNO2            HNO3            HOCL           
 HOF             HO2             HSO3F           H2F2            H2O2           
 H2SO4           H3F3            H4F4            H5F5            H6F6           
 H7F7            MgN             *MgO            Mg(OH)2         Mg2            
 Mg2F4           *N              NF              NF2             NF3            
 *NH             NHF             NHF2            NH2F            NH2OH          
 *NO             NOCL            NOF             NOF3            NO2            
 NO2CL           NO2F            NO3             NO3F            N2F2           
 N2F4            N2H2            NH2NO2          N2H4            N2O            
 N2O3            N2O4            N2O5            N3              N3H            
 *O              *OH             *O2             O3              *S             
 SCL             SCL2            SF              SF2             SF3            
 SF4             SF5             SF6             SN              SO             
 SOF2            SO2             SO2CL2          SO2FCL          SO2F2          
 SO3             S2              S2CL2           S2F2            S2O            
 S3              S4              S5              S6              S7             
 S8              SiBr2           SiBr3           SiBr4           SiCL3          
 SiF3            SiHBr3          SiN             SiO2            Si2            
 Si2F6           Si2N            Si3             Br2(cr)         Br2(L)         
 H2O(cr)         H2O(L)          H2SO4(L)        Mg(cr)          Mg(L)          
 MgBr2(cr)       MgBr2(L)        MgCL2(L)        MgF2(L)         MgH2(b)        
 MgH2(L)         MgO(L)          Mg(OH)2(cr)     Mg(OH)2(L)      MgS(L)         
 MgSO4(II)       MgSO4(I)        MgSO4(L)        MgSiO3(I)       MgSiO3(II)     
 MgSiO3(III)     MgSiO3(L)       Mg2SiO4(L)      Mg3N2(cr)       NH4CL(II)      
 NH4CL(III)      NH4F(cr)        NH4F(L)         S(a)            S(b)           
 S(L)            SCL2(L)         S2CL2(L)        Si(cr)          Si(L)          
 SiO2(a-qz)      SiO2(b-qz)      SiO2(b-crt)     SiO2(L)         SiS(cr)        
 SiS(L)          SiS2(cr)        SiS2(L)         Si3N4(cr)      





 PHASE CHANGE, REPLACE  MgCL2(cr)      WITH  MgCL2(L)       

 POINT ITN      T            H           HE          N           S 
                    O           F           MG          SI          CL
                    BR
   1    2    1000.000      -5.656     -12.254     -26.981     -32.492
                 -59.904     -64.033     -18.382      -5.667     -37.331
                 -37.179
   2    2    1050.000      -5.717     -12.340     -25.642     -31.185
                 -57.130     -61.208     -17.908      -5.899     -36.014
                 -36.976
   3    1    1100.000      -5.777     -12.424     -24.433     -30.005
                 -54.615     -58.648     -17.481      -6.113     -34.827
                 -36.808
 REMOVE  MgCL2(L)       
   3    0    1100.000      -5.777     -12.424     -24.431     -30.003
                 -54.614     -58.648     -17.482      -6.116     -35.123
                 -36.816
 REMOVE  MgF2(cr)       
   3    2    1100.000      -5.777     -12.424     -24.433     -30.005
                 -54.615     -58.814     -17.481      -6.113     -35.230
                 -36.816
   4    2    1150.000      -5.835     -12.506     -23.339     -28.937
                 -52.328     -56.966     -17.095      -6.309     -34.701
                 -36.684
   5    2    1200.000      -5.892     -12.585     -22.343     -27.965
                 -50.238     -55.291     -16.746      -6.492     -34.242
                 -36.573
   6    2    1250.000      -5.947     -12.663     -21.435     -27.080
                 -48.323     -53.777     -16.428      -6.660     -33.844
                 -36.478

 SINGULAR MATRIX, ITERATION  1  VARIABLE 10(EQLBRM)
   7   22     800.000      -5.299     -11.695     -33.982     -39.385
                 -74.488     -78.930     -21.061      -4.705     -44.936
                 -38.151
   8    4     850.000      -5.368     -11.791     -31.867     -37.314
                 -70.156     -74.519     -20.285      -5.030     -42.658
                 -38.188




               THERMODYNAMIC EQUILIBRIUM PROPERTIES AT ASSIGNED

                           TEMPERATURE AND PRESSURE

 CASE = saturn         

             REACTANT                       MOLES         ENERGY      TEMP
                                                         KJ/KG-MOL      K
 NAME        H2                           1.0000000         0.000      0.000
 NAME        He                           0.1350000         0.000      0.000
 NAME        N2                           0.0002270         0.000      0.000
 NAME        H2S                          0.0003760         0.000      0.000
 NAME        O2                           0.0004900         0.000      0.000
 NAME        HF                           0.0000007         0.000      0.000
 NAME        Mg                           0.0007960         0.000      0.000
 NAME        Si                           0.0006470         0.000      0.000
 NAME        HCL                          0.0000063         0.000      0.000
 NAME        HBr                          0.0000000         0.000      0.000

 O/F=    0.00000  %FUEL=  0.000000  R,EQ.RATIO=*********  PHI,EQ.RATIO= 0.000000

 THERMODYNAMIC PROPERTIES

 P, BAR            555.05   555.05   555.05   555.05   555.05   555.05   669.65   669.65
 T, K             1000.00  1050.00  1100.00  1150.00  1200.00  1250.00   800.00   850.00
 RHO, KG/CU M    1.5457 1 1.4721 1 1.4052 1 1.3441 1 1.2881 1 1.2366 1 2.3311 1 2.1939 1
 H, KJ/KG         8348.22  8979.62  9614.42  10252.9  10895.4  11542.0  5853.80  6473.49
 U, KJ/KG         4757.32  5209.17  5664.42  6123.38  6586.31  7053.36  2981.09  3421.23
 G, KJ/KG        -41343.9 -43844.0 -46374.3 -48933.5 -51520.6 -54134.5 -31135.0 -33465.7
 S, KJ/(KG)(K)    49.6921  50.3082  50.8988  51.4664  52.0133  52.5412  46.2359  46.9873

 M, (1/n)           2.315    2.315    2.315    2.315    2.315    2.315    2.315    2.315
 MW, MOL WT         2.314    2.314    2.314    2.314    2.314    2.314    2.314    2.314
 (dLV/dLP)t      -1.00000 -1.00000 -1.00000 -1.00000 -1.00000 -1.00000 -1.00000 -1.00000
 (dLV/dLT)p        1.0000   1.0000   1.0000   1.0000   1.0000   1.0000   1.0000   1.0000
 Cp, KJ/(KG)(K)   12.5950  12.6626  12.7315  12.8091  12.8903  12.9739  12.3724  12.4160
 GAMMAs            1.3988   1.3959   1.3928   1.3895   1.3861   1.3827   1.4089   1.4069
 SON VEL,M/SEC     2241.2   2294.1   2345.6   2395.4   2444.0   2491.3   2011.8   2072.2

 MOLE FRACTIONS

 *Br             9.134-16 2.316-15 5.302-15 1.119-14 2.208-14 4.114-14 6.815-18 1.947-17
 *CL             8.553-17 7.019-16 3.167-15 1.045-14 3.056-14 8.047-14 6.146-22 1.947-20
 *H              9.041-11 3.231-10 1.030 -9 2.973 -9 7.863 -9 1.926 -8 1.051-13 7.432-13
 HBr             5.1584-9 5.4749-9 5.6719-9 5.7967-9 5.8778-9 5.9320-9 4.0167-9 3.0141-9
 HCL             8.9524-7 2.0977-6 3.0246-6 3.5178-6 3.9496-6 4.3072-6 4.9738-9 2.2999-8
 *HF             1.311 -9 4.913 -9 1.378 -8 2.528 -8 4.338 -8 6.965 -8 1.155-12 9.083-12
 *H2             8.8041-1 8.8041-1 8.8040-1 8.8040-1 8.8040-1 8.8040-1 8.8041-1 8.8041-1
 H2F2            5.879-19 7.380-18 5.255-17 1.617-16 4.393-16 1.053-15 1.017-24 5.228-23
 H2O             5.706-11 2.365-10 8.572-10 2.762 -9 8.038 -9 2.137 -8 3.356-14 3.102-13
 H2S             1.109 -9 3.810 -9 1.165 -8 3.214 -8 8.117 -8 1.895 -7 1.756-12 1.212-11
 *He             1.1882-1 1.1882-1 1.1882-1 1.1882-1 1.1882-1 1.1882-1 1.1882-1 1.1882-1
 *Mg             8.031-11 3.269-10 1.172 -9 3.762 -9 1.096 -8 2.937 -8 3.783-14 3.324-13
 MgBr            3.746-14 8.915-14 1.924-13 3.849-13 7.222-13 1.285-12 3.455-16 9.071-16
 MgBr2           1.223-10 6.558-11 3.591-11 2.034-11 1.195-11 7.294-12 3.392 -9 6.027-10
 MgCL            1.177-11 6.016-11 1.763-10 3.924-10 7.986-10 1.507 -9 8.968-16 1.389-14
 MgCL2           3.085 -7 9.022 -7 1.060 -6 8.543 -7 6.709 -7 5.176 -7 2.425-10 1.942 -9
 MgF             1.162-14 9.668-14 5.604-13 1.998-12 6.303-12 1.776-11 1.282-19 3.469-18
 MgF2            3.178-14 2.745-13 1.393-12 3.152-12 6.463-12 1.199-11 2.963-19 8.555-18
 MgH             5.500-15 3.560-14 1.945-13 9.178-13 3.806-12 1.411-11 2.491-19 4.483-18
 MgOH            1.562-19 2.201-18 2.430-17 2.171-16 1.612-15 1.017-14 1.264-25 7.667-24
 MgS             3.919-19 5.443-18 5.933-17 5.241-16 3.853-15 2.410-14 3.101-25 1.843-23
 NH2             7.693-19 8.997-18 8.372-17 6.378-16 4.088-15 2.246-14 2.055-24 9.403-23
 NH3             5.456 -9 1.617 -8 4.316 -8 1.051 -7 2.368 -7 4.971 -7 2.139-11 1.181-10
 *N2             4.141-16 6.846-15 8.696-14 8.757-13 7.229-12 4.991-11 1.659-22 1.311-20
 SH              2.094-16 1.877-15 1.372-14 8.395-14 4.401-13 2.011-12 1.989-21 6.002-20
 *Si             4.308-20 4.911-19 4.499-18 3.414-17 2.192-16 1.217-15 8.500-26 3.628-24
 SiBr            2.798-17 8.702-17 2.401-16 6.030-16 1.396-15 3.022-15 5.928-20 2.327-19
 SiCL            3.478-16 2.713-15 1.170-14 3.718-14 1.050-13 2.687-13 2.686-21 7.918-20
 SiCL2           1.105-13 6.048-13 1.258-12 1.710-12 2.171-12 2.610-12 2.967-18 6.243-17
 SiCL4           2.879-16 1.523-15 1.364-15 5.977-16 2.576-16 1.105-16 2.795-21 8.367-20
 SiF             1.025-19 1.375-18 1.233-17 6.567-17 2.998-16 1.189-15 8.586-26 4.812-24
 SiFCL           1.801-14 1.292-13 4.365-13 7.943-13 1.326-12 2.043-12 2.179-19 5.735-18
 SiF2            7.362-16 6.927-15 3.803-14 9.266-14 2.034-13 4.023-13 4.006-21 1.319-19
 SiF4            1.088-15 9.885-15 3.762-14 3.371-14 2.875-14 2.282-14 7.534-21 2.386-19
 SiH             1.742-16 1.224-15 7.223-15 3.667-14 1.627-13 6.436-13 4.736-21 9.622-20
 SiHCL           3.929-13 1.833-12 4.956-12 1.028-11 1.965-11 3.510-11 4.952-17 6.602-16
 SiHCL3          2.000-12 6.629-12 5.829-12 3.016-12 1.547-12 7.944-13 4.559-16 5.391-15
 SiHF            4.367-14 2.631-13 1.140-12 3.128-12 7.780-12 1.766-11 2.689-18 4.377-17
 SiHF3           1.517-12 8.003-12 2.198-11 2.041-11 1.826-11 1.549-11 1.962-16 2.655-15
 SiH2            3.027-13 1.215-12 4.311-12 1.376-11 3.992-11 1.068-10 1.713-16 1.465-15
 SiH2Br2         6.110-15 3.072-15 1.592-15 8.608-16 4.859-16 2.869-16 2.698-13 4.284-14
 SiH2CL2         1.498 -9 3.300 -9 3.007 -9 1.928 -9 1.231 -9 7.884-10 5.908-12 3.019-11
 SiH2F2          1.276 -9 3.817 -9 7.407 -9 6.995 -9 6.453 -9 5.758 -9 3.514-12 1.954-11
 SiH3            2.220-11 5.960-11 1.467-10 3.356-10 7.183-10 1.454 -9 1.153-13 5.277-13
 SiH3Br          6.980-10 4.938-10 3.553-10 2.619-10 1.975-10 1.527-10 4.747 -9 1.880 -9
 SiH3CL          2.8662-7 4.2783-7 4.1123-7 3.3237-7 2.6821-7 2.1712-7 1.7653-8 4.0156-8
 SiH3F           2.4908-7 4.3421-7 6.1030-7 5.9964-7 5.8262-7 5.5772-7 1.2669-8 3.0165-8
 SiH4            2.1598-5 2.1662-5 2.1798-5 2.2049-5 2.2344-5 2.2744-5 2.1748-5 2.1724-5
 SiO             6.961-15 5.778-14 3.950-13 2.284-12 1.138-11 4.987-11 7.581-20 2.024-18
 SiS             4.257-13 2.690-12 1.434-11 6.601-11 2.669-10 9.639-10 1.930-17 3.391-16
 SiS2            9.316-20 1.341-18 1.507-17 1.366-16 1.025-15 6.516-15 5.993-26 3.791-24
 MgCL2(cr)       0.0000 0 0.0000 0 0.0000 0 0.0000 0 0.0000 0 0.0000 0 2.7696-6 2.7476-6
 MgCL2(L)        1.8802-6 6.1288-7 0.0000 0 0.0000 0 0.0000 0 0.0000 0 0.0000 0 0.0000 0
 MgF2(cr)        1.9301-7 9.6093-8 0.0000 0 0.0000 0 0.0000 0 0.0000 0 3.1314-7 3.0438-7
 MgO(cr)         7.1806-5 7.3347-5 7.4450-5 7.4868-5 7.5258-5 7.5627-5 7.0405-5 7.0461-5
 MgS(cr)         3.3092-4 3.3092-4 3.3091-4 3.3089-4 3.3084-4 3.3073-4 3.3092-4 3.3092-4
 Mg2SiO4(cr)     1.4773-4 1.4735-4 1.4707-4 1.4698-4 1.4690-4 1.4683-4 1.4808-4 1.4807-4
 Si2N2O(cr)      1.9978-4 1.9978-4 1.9977-4 1.9973-4 1.9967-4 1.9954-4 1.9979-4 1.9979-4

  * THERMODYNAMIC PROPERTIES FITTED TO 20000.K

    PRODUCTS WHICH WERE CONSIDERED BUT WHOSE MOLE FRACTIONS
    WERE LESS THAN 1.000000E-15 FOR ALL ASSIGNED CONDITIONS

 BrCL            BrF             BrF3            BrF5            BrO            
 OBrO            BrOO            BrO3            Br2             BrBrO          
 BrOBr           CLF             CLF3            CLF5            CLO            
 CLO2            CL2             CL2O            *F              FO             
 FO2,FOO         FO2,OFO         F2              F2O             F2O2           
 FS2F            HNO             HNO2            HNO3            HOCL           
 HOF             HO2             HSO3F           H2O2            H2SO4          
 H3F3            H4F4            H5F5            H6F6            H7F7           
 MgN             *MgO            Mg(OH)2         Mg2             Mg2F4          
 *N              NF              NF2             NF3             *NH            
 NHF             NHF2            NH2F            NH2OH           *NO            
 NOCL            NOF             NOF3            NO2             NO2CL          
 NO2F            NO3             NO3F            N2F2            N2F4           
 N2H2            NH2NO2          N2H4            N2O             N2O3           
 N2O4            N2O5            N3              N3H             *O             
 *OH             *O2             O3              *S              SCL            
 SCL2            SF              SF2             SF3             SF4            
 SF5             SF6             SN              SO              SOF2           
 SO2             SO2CL2          SO2FCL          SO2F2           SO3            
 S2              S2CL2           S2F2            S2O             S3             
 S4              S5              S6              S7              S8             
 SiBr2           SiBr3           SiBr4           SiCL3           SiF3           
 SiHBr3          SiN             SiO2            Si2             Si2F6          
 Si2N            Si3             Br2(cr)         Br2(L)          H2O(cr)        
 H2O(L)          H2SO4(L)        Mg(cr)          Mg(L)           MgBr2(cr)      
 MgBr2(L)        MgF2(L)         MgH2(b)         MgH2(L)         MgO(L)         
 Mg(OH)2(cr)     Mg(OH)2(L)      MgS(L)          MgSO4(II)       MgSO4(I)       
 MgSO4(L)        MgSiO3(I)       MgSiO3(II)      MgSiO3(III)     MgSiO3(L)      
 Mg2SiO4(L)      Mg3N2(cr)       NH4CL(II)       NH4CL(III)      NH4F(cr)       
 NH4F(L)         S(a)            S(b)            S(L)            SCL2(L)        
 S2CL2(L)        Si(cr)          Si(L)           SiO2(a-qz)      SiO2(b-qz)     
 SiO2(b-crt)     SiO2(L)         SiS(cr)         SiS(L)          SiS2(cr)       
 SiS2(L)         Si3N4(cr)      






 POINT ITN      T            H           HE          N           S 
                    O           F           MG          SI          CL
                    BR
   1    3     900.000      -5.434     -11.886     -29.996     -35.484
                 -66.316     -70.608     -19.606      -5.327     -40.644
                 -37.701
   2    2     950.000      -5.499     -11.977     -28.331     -33.855
                 -62.888     -67.119     -19.007      -5.602     -38.853
                 -37.344
 PHASE CHANGE, REPLACE  MgCL2(cr)      WITH  MgCL2(L)       
   3    2    1000.000      -5.562     -12.066     -26.840     -32.399
                 -59.811     -63.987     -18.476      -5.855     -37.284
                 -37.081
   4    2    1050.000      -5.623     -12.153     -25.502     -31.091
                 -57.036     -61.162     -18.001      -6.087     -35.968
                 -36.881
   5    1    1100.000      -5.683     -12.237     -24.293     -29.911
                 -54.521     -58.601     -17.575      -6.301     -34.780
                 -36.714
 REMOVE  MgCL2(L)       
   5    0    1100.000      -5.683     -12.237     -24.292     -29.910
                 -54.521     -58.601     -17.575      -6.302     -35.037
                 -36.721
 REMOVE  MgF2(cr)       
   5    2    1100.000      -5.683     -12.237     -24.293     -29.911
                 -54.522     -58.721     -17.575      -6.300     -35.111
                 -36.721
   6    2    1150.000      -5.741     -12.318     -23.200     -28.844
                 -52.235     -56.873     -17.188      -6.495     -34.586
                 -36.590
   7    2    1200.000      -5.798     -12.398     -22.205     -27.873
                 -50.145     -55.200     -16.839      -6.676     -34.131
                 -36.479
   8    2    1250.000      -5.853     -12.475     -21.299     -26.989
                 -48.232     -53.688     -16.519      -6.842     -33.736
                 -36.384




               THERMODYNAMIC EQUILIBRIUM PROPERTIES AT ASSIGNED

                           TEMPERATURE AND PRESSURE

 CASE = saturn         

             REACTANT                       MOLES         ENERGY      TEMP
                                                         KJ/KG-MOL      K
 NAME        H2                           1.0000000         0.000      0.000
 NAME        He                           0.1350000         0.000      0.000
 NAME        N2                           0.0002270         0.000      0.000
 NAME        H2S                          0.0003760         0.000      0.000
 NAME        O2                           0.0004900         0.000      0.000
 NAME        HF                           0.0000007         0.000      0.000
 NAME        Mg                           0.0007960         0.000      0.000
 NAME        Si                           0.0006470         0.000      0.000
 NAME        HCL                          0.0000063         0.000      0.000
 NAME        HBr                          0.0000000         0.000      0.000

 O/F=    0.00000  %FUEL=  0.000000  R,EQ.RATIO=*********  PHI,EQ.RATIO= 0.000000

 THERMODYNAMIC PROPERTIES

 P, BAR            669.65   669.65   669.65   669.65   669.65   669.65   669.65   669.65
 T, K              900.00   950.00  1000.00  1050.00  1100.00  1150.00  1200.00  1250.00
 RHO, KG/CU M    2.0721 1 1.9630 1 1.8649 1 1.7760 1 1.6953 1 1.6216 1 1.5540 1 1.4919 1
 H, KJ/KG         7095.51  7720.24  8348.21  8979.60  9614.42  10252.9  10895.4  11542.0
 U, KJ/KG         3863.70  4308.88  4757.32  5209.15  5664.43  6123.38  6586.31  7053.38
 G, KJ/KG        -35833.0 -38235.0 -40669.9 -43136.3 -45632.9 -48158.4 -50711.8 -53292.0
 S, KJ/(KG)(K)    47.6984  48.3739  49.0181  49.6342  50.2248  50.7924  51.3393  51.8672

 M, (1/n)           2.315    2.315    2.315    2.315    2.315    2.315    2.315    2.315
 MW, MOL WT         2.314    2.314    2.314    2.314    2.314    2.314    2.314    2.314
 (dLV/dLP)t      -1.00000 -1.00000 -1.00000 -1.00000 -1.00000 -1.00000 -1.00000 -1.00000
 (dLV/dLT)p        1.0000   1.0000   1.0000   1.0000   1.0000   1.0000   1.0000   1.0000
 Cp, KJ/(KG)(K)   12.4660  12.5247  12.5949  12.6622  12.7315  12.8092  12.8904  12.9741
 GAMMAs            1.4046   1.4020   1.3988   1.3959   1.3928   1.3895   1.3861   1.3827
 SON VEL,M/SEC     2130.6   2186.9   2241.2   2294.1   2345.6   2395.4   2444.0   2491.2

 MOLE FRACTIONS

 *Br             8.395-17 2.889-16 8.344-16 2.112-15 4.832-15 1.019-14 2.010-14 3.746-14
 *CL             4.193-19 6.520-18 7.429-17 6.097-16 2.958-15 9.722-15 2.831-14 7.428-14
 *H              4.240-12 2.018-11 8.231-11 2.942-10 9.378-10 2.706 -9 7.158 -9 1.754 -8
 HBr             3.9550-9 4.6861-9 5.1760-9 5.4850-9 5.6776-9 5.7997-9 5.8793-9 5.9324-9
 HCL             8.9261-8 2.9902-7 8.5411-7 2.0013-6 3.1021-6 3.5938-6 4.0191-6 4.3670-6
 *HF             5.654-11 2.892-10 1.251 -9 4.687 -9 1.377 -8 2.524 -8 4.327 -8 6.933 -8
 *H2             8.8041-1 8.8041-1 8.8041-1 8.8041-1 8.8040-1 8.8040-1 8.8040-1 8.8040-1
 H2F2            1.724-21 3.911-20 6.456-19 8.104-18 6.328-17 1.945-16 5.271-16 1.259-15
 H2O             2.227-12 1.293-11 6.266-11 2.598-10 9.411-10 3.031 -9 8.816 -9 2.341 -8
 H2S             6.715-11 3.093-10 1.218 -9 4.184 -9 1.279 -8 3.527 -8 8.903 -8 2.075 -7
 *He             1.1882-1 1.1882-1 1.1882-1 1.1882-1 1.1882-1 1.1882-1 1.1882-1 1.1882-1
 *Mg             2.290-12 1.285-11 6.062-11 2.467-10 8.845-10 2.841 -9 8.285 -9 2.222 -8
 MgBr            3.617-15 1.156-14 3.116-14 7.405-14 1.597-13 3.195-13 5.997-13 1.068-12
 MgBr2           3.726-10 2.094-10 1.121-10 5.994-11 3.277-11 1.856-11 1.090-11 6.659-12
 MgCL            1.577-13 1.377-12 9.311-12 4.759-11 1.500-10 3.325-10 6.746-10 1.270 -9
 MgCL2           1.2243-8 6.3075-8 2.5574-7 7.4780-7 1.0158-6 8.1243-7 6.3340-7 4.8571-7
 MgF             6.464-17 8.805-16 9.192-15 7.647-14 4.643-13 1.655-12 5.218-12 1.469-11
 MgF2            1.688-16 2.416-15 2.634-14 2.275-13 1.266-12 2.863-12 5.862-12 1.084-11
 MgH             5.838-17 5.790-16 4.560-15 2.951-14 1.613-13 7.613-13 3.160-12 1.173-11
 MgOH            2.933-22 7.615-21 1.422-19 2.004-18 2.212-17 1.977-16 1.468-15 9.261-15
 MgS             6.920-22 1.766-20 3.248-19 4.511-18 4.918-17 4.344-16 3.194-15 1.998-14
 NH2             2.799-21 5.805-20 8.853-19 1.035-17 9.631-17 7.334-16 4.696-15 2.576-14
 NH3             5.355-10 2.061 -9 6.896 -9 2.043 -8 5.453 -8 1.327 -7 2.987 -7 6.260 -7
 *N2             6.334-19 2.024-17 4.546-16 7.515-15 9.538-14 9.595-13 7.906-12 5.438-11
 SH              1.236-18 1.845-17 2.094-16 1.877-15 1.372-14 8.388-14 4.394-13 2.006-12
 SiBr            1.329-18 5.870-18 2.120-17 6.581-17 1.816-16 4.560-16 1.057-15 2.293-15
 SiCL            1.594-18 2.329-17 2.505-16 1.954-15 9.065-15 2.871-14 8.087-14 2.067-13
 SiCL2           9.284-16 1.031-14 8.341-14 4.565-13 1.098-12 1.482-12 1.869-12 2.236-12
 SiCL4           1.696-18 2.477-17 2.387-16 1.263-15 1.510-15 6.521-16 2.770-16 1.174-16
 SiFCL           1.041-16 1.382-15 1.360-14 9.753-14 3.711-13 6.726-13 1.118-12 1.718-12
 SiF2            2.923-18 4.642-17 5.557-16 5.229-15 3.150-14 7.669-14 1.682-13 3.321-13
 SiF4            5.094-18 7.804-17 9.021-16 8.193-15 3.752-14 3.356-14 2.853-14 2.252-14
 SiH             1.397-18 1.528-17 1.315-16 9.243-16 5.456-15 2.771-14 1.232-13 4.883-13
 SiHCL           6.566-15 5.101-14 3.108-13 1.450-12 4.217-12 8.719-12 1.662-11 2.965-11
 SiHCL3          4.799-14 3.363-13 1.737-12 5.759-12 6.295-12 3.221-12 1.635-12 8.323-13
 SiHF            5.202-16 4.742-15 3.455-14 2.082-13 9.453-13 2.593-12 6.450-12 1.465-11
 SiHF3           2.667-14 2.085-13 1.318-12 6.953-12 2.194-11 2.035-11 1.817-11 1.536-11
 SiH2            9.857-15 5.417-14 2.510-13 1.008-12 3.576-12 1.142-11 3.319-11 8.903-11
 SiH2Br2         2.402-14 1.238-14 6.154-15 3.085-15 1.596-15 8.631-16 4.876-16 2.884-16
 SiH2CL2         1.278-10 4.619-10 1.364 -9 3.005 -9 3.166 -9 2.016 -9 1.279 -9 8.148-10
 SiH2F2          8.922-11 3.453-10 1.162 -9 3.476 -9 7.400 -9 6.984 -9 6.437 -9 5.735 -9
 SiH3            2.037-12 6.815-12 2.022-11 5.428-11 1.337-10 3.061-10 6.559-10 1.331 -9
 SiH3Br          1.399 -9 9.987-10 7.007-10 4.949-10 3.559-10 2.625-10 1.981-10 1.535-10
 SiH3CL          8.3042-8 1.5853-7 2.7357-7 4.0835-7 4.2216-7 3.4010-7 2.7373-7 2.2132-7
 SiH3F           6.4987-8 1.2873-7 2.3773-7 4.1443-7 6.1033-7 5.9970-7 5.8277-7 5.5810-7
 SiH4            2.1683-5 2.1632-5 2.1607-5 2.1671-5 2.1819-5 2.2085-5 2.2410-5 2.2866-5
 SiO             3.737-17 5.056-16 5.254-15 4.361-14 2.982-13 1.725-12 8.602-12 3.773-11
 SiS             4.313-15 4.178-14 3.213-13 2.030-12 1.083-11 4.985-11 2.017-10 7.293-10
 SiS2            1.504-22 4.028-21 7.722-20 1.112-18 1.249-17 1.132-16 8.495-16 5.401-15
 MgCL2(cr)       2.6827-6 2.4889-6 0.0000 0 0.0000 0 0.0000 0 0.0000 0 0.0000 0 0.0000 0
 MgCL2(L)        0.0000 0 0.0000 0 1.9602-6 8.2550-7 0.0000 0 0.0000 0 0.0000 0 0.0000 0
 MgF2(cr)        2.8687-7 2.5463-7 1.9883-7 1.0644-7 0.0000 0 0.0000 0 0.0000 0 0.0000 0
 MgO(cr)         7.0606-5 7.0956-5 7.1739-5 7.3208-5 7.4536-5 7.4947-5 7.5324-5 7.5679-5
 MgS(cr)         3.3092-4 3.3092-4 3.3092-4 3.3092-4 3.3091-4 3.3089-4 3.3083-4 3.3072-4
 Mg2SiO4(cr)     1.4803-4 1.4794-4 1.4775-4 1.4738-4 1.4705-4 1.4696-4 1.4689-4 1.4683-4
 Si2N2O(cr)      1.9979-4 1.9979-4 1.9978-4 1.9978-4 1.9976-4 1.9972-4 1.9964-4 1.9947-4

  * THERMODYNAMIC PROPERTIES FITTED TO 20000.K

    PRODUCTS WHICH WERE CONSIDERED BUT WHOSE MOLE FRACTIONS
    WERE LESS THAN 1.000000E-15 FOR ALL ASSIGNED CONDITIONS

 BrCL            BrF             BrF3            BrF5            BrO            
 OBrO            BrOO            BrO3            Br2             BrBrO          
 BrOBr           CLF             CLF3            CLF5            CLO            
 CLO2            CL2             CL2O            *F              FO             
 FO2,FOO         FO2,OFO         F2              F2O             F2O2           
 FS2F            HNO             HNO2            HNO3            HOCL           
 HOF             HO2             HSO3F           H2O2            H2SO4          
 H3F3            H4F4            H5F5            H6F6            H7F7           
 MgN             *MgO            Mg(OH)2         Mg2             Mg2F4          
 *N              NF              NF2             NF3             *NH            
 NHF             NHF2            NH2F            NH2OH           *NO            
 NOCL            NOF             NOF3            NO2             NO2CL          
 NO2F            NO3             NO3F            N2F2            N2F4           
 N2H2            NH2NO2          N2H4            N2O             N2O3           
 N2O4            N2O5            N3              N3H             *O             
 *OH             *O2             O3              *S              SCL            
 SCL2            SF              SF2             SF3             SF4            
 SF5             SF6             SN              SO              SOF2           
 SO2             SO2CL2          SO2FCL          SO2F2           SO3            
 S2              S2CL2           S2F2            S2O             S3             
 S4              S5              S6              S7              S8             
 *Si             SiBr2           SiBr3           SiBr4           SiCL3          
 SiF             SiF3            SiHBr3          SiN             SiO2           
 Si2             Si2F6           Si2N            Si3             Br2(cr)        
 Br2(L)          H2O(cr)         H2O(L)          H2SO4(L)        Mg(cr)         
 Mg(L)           MgBr2(cr)       MgBr2(L)        MgF2(L)         MgH2(b)        
 MgH2(L)         MgO(L)          Mg(OH)2(cr)     Mg(OH)2(L)      MgS(L)         
 MgSO4(II)       MgSO4(I)        MgSO4(L)        MgSiO3(I)       MgSiO3(II)     
 MgSiO3(III)     MgSiO3(L)       Mg2SiO4(L)      Mg3N2(cr)       NH4CL(II)      
 NH4CL(III)      NH4F(cr)        NH4F(L)         S(a)            S(b)           
 S(L)            SCL2(L)         S2CL2(L)        Si(cr)          Si(L)          
 SiO2(a-qz)      SiO2(b-qz)      SiO2(b-crt)     SiO2(L)         SiS(cr)        
 SiS(L)          SiS2(cr)        SiS2(L)         Si3N4(cr)      






 POINT ITN      T            H           HE          N           S 
                    O           F           MG          SI          CL
                    BR

 SINGULAR MATRIX, ITERATION  1  VARIABLE 10(EQLBRM)
   1   22     800.000      -5.210     -11.516     -33.847     -39.296
                 -74.398     -78.886     -21.150      -4.884     -44.891
                 -37.947
   2    4     850.000      -5.278     -11.612     -31.733     -37.225
                 -70.067     -74.474     -20.374      -5.209     -42.613
                 -38.084
   3    3     900.000      -5.345     -11.707     -29.862     -35.394
                 -66.226     -70.564     -19.695      -5.506     -40.600
                 -37.602
   4    2     950.000      -5.409     -11.798     -28.197     -33.766
                 -62.798     -67.074     -19.096      -5.780     -38.808
                 -37.249
 PHASE CHANGE, REPLACE  MgCL2(cr)      WITH  MgCL2(L)       
   5    2    1000.000      -5.472     -11.887     -26.707     -32.309
                 -59.722     -63.942     -18.565      -6.033     -37.239
                 -36.989
   6    2    1050.000      -5.534     -11.974     -25.368     -31.002
                 -56.947     -61.117     -18.091      -6.265     -35.923
                 -36.790
   7    1    1100.000      -5.594     -12.058     -24.159     -29.822
                 -54.432     -58.557     -17.664      -6.479     -34.736
                 -36.623
 REMOVE  MgCL2(L)       
   7    0    1100.000      -5.594     -12.058     -24.159     -29.822
                 -54.432     -58.557     -17.664      -6.479     -34.951
                 -36.631
 REMOVE  MgF2(cr)       
   7    2    1100.000      -5.594     -12.058     -24.160     -29.822
                 -54.433     -58.632     -17.663      -6.478     -34.998
                 -36.631
   8    2    1150.000      -5.652     -12.139     -23.067     -28.755
                 -52.146     -56.785     -17.277      -6.672     -34.477
                 -36.500




               THERMODYNAMIC EQUILIBRIUM PROPERTIES AT ASSIGNED

                           TEMPERATURE AND PRESSURE

 CASE = saturn         

             REACTANT                       MOLES         ENERGY      TEMP
                                                         KJ/KG-MOL      K
 NAME        H2                           1.0000000         0.000      0.000
 NAME        He                           0.1350000         0.000      0.000
 NAME        N2                           0.0002270         0.000      0.000
 NAME        H2S                          0.0003760         0.000      0.000
 NAME        O2                           0.0004900         0.000      0.000
 NAME        HF                           0.0000007         0.000      0.000
 NAME        Mg                           0.0007960         0.000      0.000
 NAME        Si                           0.0006470         0.000      0.000
 NAME        HCL                          0.0000063         0.000      0.000
 NAME        HBr                          0.0000000         0.000      0.000

 O/F=    0.00000  %FUEL=  0.000000  R,EQ.RATIO=*********  PHI,EQ.RATIO= 0.000000

 THERMODYNAMIC PROPERTIES

 P, BAR            800.88   800.88   800.88   800.88   800.88   800.88   800.88   800.88
 T, K              800.00   850.00   900.00   950.00  1000.00  1050.00  1100.00  1150.00
 RHO, KG/CU M    2.7879 1 2.6239 1 2.4781 1 2.3477 1 2.2303 1 2.1241 1 2.0275 1 1.9394 1
 H, KJ/KG         5853.80  6473.49  7095.51  7720.23  8348.21  8979.58  9614.42  10252.9
 U, KJ/KG         2981.09  3421.23  3863.70  4308.88  4757.31  5209.14  5664.43  6123.39
 G, KJ/KG        -30620.9 -32919.5 -35254.7 -37624.5 -40027.3 -42461.5 -44926.0 -47419.4
 S, KJ/(KG)(K)    45.5933  46.3447  47.0557  47.7313  48.3755  48.9916  49.5822  50.1498

 M, (1/n)           2.315    2.315    2.315    2.315    2.315    2.315    2.315    2.315
 MW, MOL WT         2.314    2.314    2.314    2.314    2.314    2.314    2.314    2.314
 (dLV/dLP)t      -1.00000 -1.00000 -1.00000 -1.00000 -1.00000 -1.00000 -1.00000 -1.00000
 (dLV/dLT)p        1.0000   1.0000   1.0000   1.0000   1.0000   1.0000   1.0000   1.0000
 Cp, KJ/(KG)(K)   12.3724  12.4160  12.4660  12.5246  12.5947  12.6619  12.7315  12.8092
 GAMMAs            1.4089   1.4069   1.4046   1.4020   1.3988   1.3959   1.3928   1.3895
 SON VEL,M/SEC     2011.8   2072.2   2130.6   2186.9   2241.2   2294.2   2345.6   2395.4

 MOLE FRACTIONS

 *Br             6.987-18 1.806-17 7.749-17 2.656-16 7.653-16 1.935-15 4.422-15 9.324-15
 *CL             5.374-22 1.703-20 3.666-19 5.701-18 6.495-17 5.330-16 2.768-15 9.065-15
 *H              9.606-14 6.795-13 3.877-12 1.845-11 7.527-11 2.690-10 8.575-10 2.475 -9
 HBr             4.5030-9 3.0578-9 3.9923-9 4.7117-9 5.1914-9 5.4939-9 5.6824-9 5.8022-9
 HCL             4.7561-9 2.1992-8 8.5351-8 2.8591-7 8.1666-7 1.9135-6 3.1755-6 3.6648-6
 *HF             1.104-12 8.686-12 5.407-11 2.765-10 1.196 -9 4.482 -9 1.376 -8 2.520 -8
 *H2             8.8041-1 8.8041-1 8.8041-1 8.8041-1 8.8041-1 8.8041-1 8.8040-1 8.8040-1
 H2O             3.670-14 3.392-13 2.435-12 1.414-11 6.851-11 2.840-10 1.029 -9 3.312 -9
 H2S             1.921-12 1.325-11 7.342-11 3.382-10 1.331 -9 4.575 -9 1.398 -8 3.854 -8
 *He             1.1882-1 1.1882-1 1.1882-1 1.1882-1 1.1882-1 1.1882-1 1.1882-1 1.1882-1
 *Mg             2.892-14 2.542-13 1.751-12 9.827-12 4.636-11 1.887-10 6.766-10 2.174 -9
 MgBr            3.238-16 7.695-16 3.053-15 9.723-15 2.614-14 6.203-14 1.338-13 2.675-13
 MgBr2           3.898 -9 5.672-10 3.472-10 1.936-10 1.032-10 5.500-11 3.003-11 1.700-11
 MgCL            7.171-16 1.111-14 1.261-13 1.101-12 7.445-12 3.805-11 1.284-10 2.838-10
 MgCL2           2.027-10 1.624 -9 1.024 -8 5.274 -8 2.138 -7 6.253 -7 9.737 -7 7.732 -7
 MgF             1.025-19 2.773-18 5.169-17 7.041-16 7.350-15 6.115-14 3.880-13 1.382-12
 MgF2            2.478-19 7.154-18 1.411-16 2.020-15 2.203-14 1.902-13 1.156-12 2.611-12
 MgH             2.083-19 3.749-18 4.882-17 4.842-16 3.813-15 2.468-14 1.349-13 6.371-13
 NH3             2.676-11 1.477-10 6.697-10 2.577 -9 8.622 -9 2.555 -8 6.815 -8 1.658 -7
 *N2             1.814-22 1.434-20 6.925-19 2.213-17 4.968-16 8.213-15 1.042-13 1.047-12
 SH              1.989-21 6.002-20 1.236-18 1.844-17 2.093-16 1.876-15 1.371-14 8.381-14
 SiCL            1.964-21 5.789-20 1.166-18 1.703-17 1.832-16 1.429-15 7.102-15 2.242-14
 SiCL2           2.269-18 4.774-17 7.099-16 7.882-15 6.379-14 3.491-13 9.626-13 1.291-12
 SiCL4           2.337-21 6.996-20 1.418-18 2.071-17 1.996-16 1.056-15 1.660-15 7.064-16
 SiFCL           1.666-19 4.385-18 7.959-17 1.057-15 1.040-14 7.458-14 3.176-13 5.736-13
 SiF2            3.063-21 1.009-19 2.235-18 3.550-17 4.249-16 3.998-15 2.631-14 6.403-14
 SiF4            6.300-21 1.995-19 4.259-18 6.525-17 7.543-16 6.851-15 3.742-14 3.339-14
 SiH             3.621-21 7.357-20 1.068-18 1.168-17 1.006-16 7.070-16 4.176-15 2.123-14
 SiHCL           3.959-17 5.279-16 5.251-15 4.080-14 2.486-13 1.160-12 3.613-12 7.447-12
 SiHCL3          3.987-16 4.714-15 4.196-14 2.941-13 1.519-12 5.036-12 6.759-12 3.422-12
 SiHF            2.150-18 3.500-17 4.160-16 3.792-15 2.763-14 1.665-13 7.905-13 2.169-12
 SiHF3           1.716-16 2.322-15 2.332-14 1.823-13 1.153-12 6.080-12 2.190-11 2.029-11
 SiH2            1.433-16 1.225-15 8.244-15 4.531-14 2.099-13 8.430-13 2.993-12 9.566-12
 SiH2Br2         3.390-13 4.409-14 2.448-14 1.252-14 6.193-15 3.096-15 1.601-15 8.654-16
 SiH2CL2         5.403-12 2.761-11 1.169-10 4.224-10 1.248 -9 2.748 -9 3.321 -9 2.100 -9
[...]
                 -74.003     -78.688     -21.546      -5.675     -44.693
                 -37.683
   4    4     850.000      -4.882     -10.821     -31.139     -36.829
                 -69.671     -74.276     -20.770      -6.000     -42.415
                 -37.634
   5    3     900.000      -4.949     -10.915     -29.269     -34.999
                 -65.831     -70.366     -20.090      -6.297     -40.402
                 -37.171
   6    2     950.000      -5.014     -11.007     -27.604     -33.371
                 -62.403     -66.876     -19.492      -6.571     -38.611
                 -36.833
 PHASE CHANGE, REPLACE  MgCL2(cr)      WITH  MgCL2(L)       
   7    2    1000.000      -5.077     -11.096     -26.114     -31.915
                 -59.327     -63.745     -18.960      -6.823     -37.042
                 -36.582
   8    2    1050.000      -5.138     -11.182     -24.776     -30.607
                 -56.552     -60.920     -18.485      -7.054     -35.726
                 -36.388




               THERMODYNAMIC EQUILIBRIUM PROPERTIES AT ASSIGNED

                           TEMPERATURE AND PRESSURE

 CASE = saturn         

             REACTANT                       MOLES         ENERGY      TEMP
                                                         KJ/KG-MOL      K
 NAME        H2                           1.0000000         0.000      0.000
 NAME        He                           0.1350000         0.000      0.000
 NAME        N2                           0.0002270         0.000      0.000
 NAME        H2S                          0.0003760         0.000      0.000
 NAME        O2                           0.0004900         0.000      0.000
 NAME        HF                           0.0000007         0.000      0.000
 NAME        Mg                           0.0007960         0.000      0.000
 NAME        Si                           0.0006470         0.000      0.000
 NAME        HCL                          0.0000063         0.000      0.000
 NAME        HBr                          0.0000000         0.000      0.000

 O/F=    0.00000  %FUEL=  0.000000  R,EQ.RATIO=*********  PHI,EQ.RATIO= 0.000000

 THERMODYNAMIC PROPERTIES

 P, BAR           1526.32  1526.32  1767.42  1767.42  1767.42  1767.42  1767.42  1767.42
 T, K             1200.00  1250.00   800.00   850.00   900.00   950.00  1000.00  1050.00
 RHO, KG/CU M    3.5421 1 3.4004 1 6.1524 1 5.7905 1 5.4688 1 5.1810 1 4.9219 1 4.6876 1
 H, KJ/KG         10895.4  11542.1  5853.80  6473.49  7095.51  7720.23  8348.19  8979.53
 U, KJ/KG         6586.37  7053.48  2981.09  3421.23  3863.70  4308.87  4757.29  5209.09
 G, KJ/KG        -47161.7 -49594.0 -28346.9 -30503.4 -32696.5 -34924.2 -37184.8 -39477.0
 S, KJ/(KG)(K)    48.3809  48.9089  42.7509  43.5023  44.2133  44.8888  45.5330  46.1491

 M, (1/n)           2.315    2.315    2.315    2.315    2.315    2.315    2.315    2.315
 MW, MOL WT         2.314    2.314    2.314    2.314    2.314    2.314    2.314    2.314
 (dLV/dLP)t      -1.00000 -1.00000 -1.00000 -1.00000 -1.00000 -1.00000 -1.00000 -1.00000
 (dLV/dLT)p        1.0000   1.0000   1.0000   1.0000   1.0000   1.0000   1.0000   1.0000
 Cp, KJ/(KG)(K)   12.8911  12.9754  12.3724  12.4160  12.4660  12.5244  12.5943  12.6610
 GAMMAs            1.3861   1.3826   1.4089   1.4069   1.4046   1.4020   1.3988   1.3959
 SON VEL,M/SEC     2443.9   2491.2   2011.8   2072.2   2130.6   2186.9   2241.2   2294.2

 MOLE FRACTIONS

 *Br             1.332-14 2.480-14 4.125-18 1.284-17 5.402-17 1.824-16 5.206-16 1.310-15
 *CL             2.003-14 5.174-14 2.968-22 9.403-21 2.024-19 3.147-18 3.586-17 2.942-16
 *H              4.742 -9 1.162 -8 6.467-14 4.574-13 2.610-12 1.242-11 5.067-11 1.811-10
 HBr             5.8822-9 5.9302-9 3.9492-9 3.2307-9 4.1341-9 4.8056-9 5.2466-9 5.5248-9
 HCL             4.2934-6 4.5923-6 3.9020-9 1.8042-8 7.0014-8 2.3450-7 6.6972-7 1.5690-6
 *HF             4.245 -8 6.699 -8 9.061-13 7.125-12 4.435-11 2.268-10 9.810-10 3.675 -9
 *H2             8.8040-1 8.8040-1 8.8041-1 8.8041-1 8.8041-1 8.8041-1 8.8041-1 8.8041-1
 H2F2            1.157-15 2.679-15 1.652-24 8.492-23 2.799-21 6.349-20 1.048-18 1.315-17
 H2O             1.317 -8 3.466 -8 5.452-14 5.039-13 3.617-12 2.099-11 1.017-10 4.214-10
 H2S             1.330 -7 3.073 -7 2.853-12 1.969-11 1.090-10 5.021-10 1.976 -9 6.788 -9
 *He             1.1882-1 1.1882-1 1.1882-1 1.1882-1 1.1882-1 1.1882-1 1.1882-1 1.1882-1
 *Mg             2.433 -9 6.584 -9 8.823-15 7.755-14 5.344-13 3.000-12 1.415-11 5.763-11
 MgBr            2.660-13 4.778-13 1.287-16 3.685-16 1.433-15 4.496-15 1.198-14 2.830-14
 MgBr2           7.305-12 4.494-12 2.018 -9 4.263-10 2.507-10 1.356-10 7.101-11 3.749-11
 MgCL            3.195-10 5.975-10 2.666-16 4.131-15 4.689-14 4.096-13 2.769-12 1.416-11
 MgCL2           4.838 -7 3.628 -7 9.187-11 7.359-10 4.639 -9 2.390 -8 9.690 -8 2.833 -7
 MgF             2.270-12 6.349-12 3.812-20 1.031-18 1.922-17 2.618-16 2.734-15 2.275-14
 MgF2            3.777-12 6.837-12 1.123-19 3.242-18 6.394-17 9.153-16 9.981-15 8.620-14
 MgH             1.401-12 5.246-12 9.440-20 1.699-18 2.213-17 2.196-16 1.730-15 1.120-14
 MgOH            9.722-16 6.134-15 7.783-26 4.719-24 1.805-22 4.687-21 8.755-20 1.233-18
 MgS             1.401-15 8.764-15 1.175-25 6.982-24 2.622-22 6.692-21 1.231-19 1.709-18
 NH2             8.576-15 4.640-14 4.255-24 1.946-22 5.791-21 1.201-19 1.830-18 2.139-17
 NH3             8.237 -7 1.703 -6 7.196-11 3.971-10 1.800 -9 6.925 -9 2.316 -8 6.859 -8
 *N2             1.157-11 7.744-11 2.694-22 2.128-20 1.028-18 3.281-17 7.360-16 1.216-14
 SH              4.349-13 1.967-12 1.989-21 6.001-20 1.235-18 1.843-17 2.091-16 1.874-15
 SiCL            2.563-14 6.567-14 4.916-22 1.449-20 2.919-19 4.267-18 4.591-17 3.583-16
 SiCL2           9.553-13 1.128-12 6.921-19 1.456-17 2.166-16 2.406-15 1.947-14 1.066-13
 SiFCL           5.251-13 7.966-13 5.083-20 1.338-18 2.429-17 3.225-16 3.174-15 2.278-14
 SiF2            7.254-14 1.415-13 9.343-22 3.077-20 6.821-19 1.083-17 1.297-16 1.221-15
 SiF4            2.700-14 2.042-14 2.855-21 9.041-20 1.930-18 2.957-17 3.418-16 3.104-15
 SiH             3.655-14 1.475-13 1.105-21 2.245-20 3.261-19 3.568-18 3.074-17 2.162-16
 SiHCL           7.953-12 1.422-11 1.472-17 1.963-16 1.953-15 1.518-14 9.255-14 4.320-13
 SiHCL3          2.035-12 1.006-12 2.202-16 2.604-15 2.318-14 1.625-13 8.394-13 2.783-12
 SiHF            2.835-12 6.457-12 7.995-19 1.302-17 1.547-16 1.411-15 1.029-14 6.201-14
 SiHF3           1.752-11 1.441-11 9.476-17 1.282-15 1.288-14 1.007-13 6.369-13 3.360-12
 SiH2            1.487-11 4.062-11 6.493-17 5.555-16 3.738-15 2.056-14 9.531-14 3.829-13
 SiH2Br2         4.983-16 2.997-16 2.608-13 4.924-14 2.626-14 1.304-14 6.338-15 3.138-15
 SiH2CL2         1.490 -9 9.368-10 3.637-12 1.859-11 7.870-11 2.845-10 8.407-10 1.852 -9
 SiH2F2          6.328 -9 5.569 -9 2.163-12 1.203-11 5.494-11 2.127-10 7.161-10 2.143 -9
 SiH3            4.436-10 9.164-10 7.101-14 3.250-13 1.255-12 4.202-12 1.247-11 3.351-11
 SiH3Br          2.024-10 1.595-10 4.668 -9 2.016 -9 1.464 -9 1.026 -9 7.118-10 4.999-10
 SiH3CL          2.9855-7 2.4200-7 1.3852-8 3.1516-8 6.5197-8 1.2452-7 2.1500-7 3.2107-7
 SiH3F           5.8382-7 5.6077-7 9.9411-9 2.3675-8 5.1022-8 1.0112-7 1.8683-7 3.2585-7
 SiH4            2.2880-5 2.3776-5 2.1753-5 2.1734-5 2.1703-5 2.1666-5 2.1656-5 2.1733-5
 SiO             2.526-12 1.118-11 1.768-20 4.722-19 8.720-18 1.180-16 1.227-15 1.019-14
 SiS             5.922-11 2.161-10 4.501-18 7.910-17 1.006-15 9.752-15 7.502-14 4.742-13
 SiS2            3.727-16 2.370-15 2.271-26 1.436-24 5.698-23 1.526-21 2.926-20 4.212-19
 MgCL2(cr)       0.0000 0 0.0000 0 2.7722-6 2.7556-6 2.7089-6 2.5775-6 0.0000 0 0.0000 0
 MgCL2(L)        0.0000 0 0.0000 0 0.0000 0 0.0000 0 0.0000 0 0.0000 0 2.2411-6 1.5509-6
 MgF2(cr)        0.0000 0 0.0000 0 3.1451-7 3.0763-7 2.9390-7 2.6860-7 2.2486-7 1.5258-7
 MgO(cr)         7.5465-5 7.5629-5 7.0397-5 7.0441-5 7.0554-5 7.0828-5 7.1437-5 7.2576-5
 MgS(cr)         3.3079-4 3.3062-4 3.3092-4 3.3092-4 3.3092-4 3.3092-4 3.3092-4 3.3092-4
 Mg2SiO4(cr)     1.4692-4 1.4698-4 1.4808-4 1.4807-4 1.4804-4 1.4798-4 1.4783-4 1.4755-4
 Si2N2O(cr)      1.9938-4 1.9894-4 1.9979-4 1.9979-4 1.9979-4 1.9978-4 1.9978-4 1.9975-4

  * THERMODYNAMIC PROPERTIES FITTED TO 20000.K

    PRODUCTS WHICH WERE CONSIDERED BUT WHOSE MOLE FRACTIONS
    WERE LESS THAN 1.000000E-15 FOR ALL ASSIGNED CONDITIONS

 BrCL            BrF             BrF3            BrF5            BrO            
 OBrO            BrOO            BrO3            Br2             BrBrO          
 BrOBr           CLF             CLF3            CLF5            CLO            
 CLO2            CL2             CL2O            *F              FO             
 FO2,FOO         FO2,OFO         F2              F2O             F2O2           
 FS2F            HNO             HNO2            HNO3            HOCL           
 HOF             HO2             HSO3F           H2O2            H2SO4          
 H3F3            H4F4            H5F5            H6F6            H7F7           
 MgN             *MgO            Mg(OH)2         Mg2             Mg2F4          
 *N              NF              NF2             NF3             *NH            
 NHF             NHF2            NH2F            NH2OH           *NO            
 NOCL            NOF             NOF3            NO2             NO2CL          
 NO2F            NO3             NO3F            N2F2            N2F4           
 N2H2            NH2NO2          N2H4            N2O             N2O3           
 N2O4            N2O5            N3              N3H             *O             
 *OH             *O2             O3              *S              SCL            
 SCL2            SF              SF2             SF3             SF4            
 SF5             SF6             SN              SO              SOF2           
 SO2             SO2CL2          SO2FCL          SO2F2           SO3            
 S2              S2CL2           S2F2            S2O             S3             
 S4              S5              S6              S7              S8             
 *Si             SiBr            SiBr2           SiBr3           SiBr4          
 SiCL3           SiCL4           SiF             SiF3            SiHBr3         
 SiN             SiO2            Si2             Si2F6           Si2N           
 Si3             Br2(cr)         Br2(L)          H2O(cr)         H2O(L)         
 H2SO4(L)        Mg(cr)          Mg(L)           MgBr2(cr)       MgBr2(L)       
 MgF2(L)         MgH2(b)         MgH2(L)         MgO(L)          Mg(OH)2(cr)    
 Mg(OH)2(L)      MgS(L)          MgSO4(II)       MgSO4(I)        MgSO4(L)       
 MgSiO3(I)       MgSiO3(II)      MgSiO3(III)     MgSiO3(L)       Mg2SiO4(L)     
 Mg3N2(cr)       NH4CL(II)       NH4CL(III)      NH4F(cr)        NH4F(L)        
 S(a)            S(b)            S(L)            SCL2(L)         S2CL2(L)       
 Si(cr)          Si(L)           SiO2(a-qz)      SiO2(b-qz)      SiO2(b-crt)    
 SiO2(L)         SiS(cr)         SiS(L)          SiS2(cr)        SiS2(L)        
 Si3N4(cr)      






 POINT ITN      T            H           HE          N           S 
                    O           F           MG          SI          CL
                    BR
   1    2    1100.000      -5.198     -11.266     -23.572     -29.430
                 -54.041     -58.361     -18.055      -7.262     -34.540
                 -36.232
   2    1    1150.000      -5.256     -11.348     -22.483     -28.366
                 -51.757     -56.033     -17.666      -7.450     -33.467
                 -36.099
 REMOVE  MgCL2(L)       
   2    0    1150.000      -5.256     -11.348     -22.478     -28.362
                 -51.753     -56.031     -17.670      -7.458     -33.839
                 -36.102
 REMOVE  MgF2(cr)       
   2    2    1150.000      -5.256     -11.348     -22.482     -28.365
                 -51.756     -56.401     -17.667      -7.452     -34.004
                 -36.103
   3    2    1200.000      -5.313     -11.427     -21.497     -27.401
                 -49.674     -54.739     -17.311      -7.620     -33.570
                 -35.993
   4    3    1250.000      -5.368     -11.504     -20.608     -26.529
                 -47.771     -53.247     -16.979      -7.763     -33.193
                 -35.900




               THERMODYNAMIC EQUILIBRIUM PROPERTIES AT ASSIGNED

                           TEMPERATURE AND PRESSURE

 CASE = saturn         

             REACTANT                       MOLES         ENERGY      TEMP
                                                         KJ/KG-MOL      K
 NAME        H2                           1.0000000         0.000      0.000
 NAME        He                           0.1350000         0.000      0.000
 NAME        N2                           0.0002270         0.000      0.000
 NAME        H2S                          0.0003760         0.000      0.000
 NAME        O2                           0.0004900         0.000      0.000
 NAME        HF                           0.0000007         0.000      0.000
 NAME        Mg                           0.0007960         0.000      0.000
 NAME        Si                           0.0006470         0.000      0.000
 NAME        HCL                          0.0000063         0.000      0.000
 NAME        HBr                          0.0000000         0.000      0.000

 O/F=    0.00000  %FUEL=  0.000000  R,EQ.RATIO=*********  PHI,EQ.RATIO= 0.000000

 THERMODYNAMIC PROPERTIES

 P, BAR           1767.42  1767.42  1767.42  1767.42
 T, K             1100.00  1150.00  1200.00  1250.00
 RHO, KG/CU M    4.4745 1 4.2799 1 4.1016 1 3.9376 1
 H, KJ/KG         9614.43  10253.0  10895.5  11542.1
 U, KJ/KG         5664.43  6123.42  6586.39  7053.52
 G, KJ/KG        -41799.3 -44150.6 -46529.7 -48935.7
 S, KJ/(KG)(K)    46.7398  47.3074  47.8543  48.3823

 M, (1/n)           2.315    2.315    2.315    2.315
 MW, MOL WT         2.314    2.314    2.314    2.314
 (dLV/dLP)t      -1.00000 -1.00000 -1.00000 -1.00000
 (dLV/dLT)p        1.0000   1.0000   1.0000   1.0000
 Cp, KJ/(KG)(K)   12.7360  12.8096  12.8913  12.9757
 GAMMAs            1.3927   1.3895   1.3861   1.3826
 SON VEL,M/SEC     2345.4   2395.4   2443.9   2491.1

 MOLE FRACTIONS

 *Br             2.985-15 6.284-15 1.238-14 2.305-14
 *CL             1.983-15 6.589-15 1.880-14 4.843-14
 *H              5.773-10 1.666 -9 4.406 -9 1.079 -8
 HBr             5.6982-9 5.8095-9 5.8821-9 5.9291-9
 HCL             3.3796-6 3.9568-6 4.3363-6 4.6256-6
 *HF             1.2143-8 2.4918-8 4.2226-8 6.6352-8
 *H2             8.8040-1 8.8040-1 8.8040-1 8.8040-1
 H2F2            1.299-16 5.002-16 1.325-15 3.043-15
 H2O             1.5224-9 4.8903-9 1.4134-8 3.7097-8
 H2S             2.0687-8 5.6910-8 1.4272-7 3.2884-7
 *He             1.1882-1 1.1882-1 1.1882-1 1.1882-1
 *Mg             2.072-10 6.673-10 1.958 -9 5.313 -9
 MgBr            6.101-14 1.221-13 2.304-13 4.148-13
 MgBr2           2.041-11 1.154-11 6.808-12 4.198-12
 MgCL            6.217-11 1.397-10 2.794-10 5.226-10
 MgCL2           7.4528-7 6.1039-7 4.5993-7 3.4392-7
 MgF             1.558-13 6.231-13 1.956-12 5.461-12
 MgF2            6.089-13 1.729-12 3.483-12 6.266-12
 MgH             6.136-14 2.904-13 1.213-12 4.555-12
 MgOH            1.362-17 1.217-16 9.035-16 5.701-15
 MgS             1.863-17 1.646-16 1.210-15 7.569-15
 NH2             1.981-16 1.503-15 9.531-15 5.137-14
 NH3             1.8227-7 4.4199-7 9.8509-7 2.0284-6
 *N2             1.530-13 1.527-12 1.234-11 8.197-11
 SH              1.366-14 8.331-14 4.336-13 1.956-12
 SiCL            2.323-15 7.473-15 2.090-14 5.366-14
 SiCL2           4.979-13 6.901-13 8.464-13 9.991-13
 SiCL4           2.146-15 9.715-16 3.855-16 1.554-16
 SiFCL           1.363-13 2.808-13 4.582-13 6.939-13
 SiF2            9.363-15 2.871-14 6.234-14 1.212-13
 SiF4            2.290-14 3.231-14 2.658-14 1.986-14
 SiH             1.283-15 6.553-15 2.950-14 1.197-13
 SiHCL           1.756-12 3.687-12 6.977-12 1.251-11
 SiHCL3          8.210-12 4.359-12 2.109-12 1.040-12
 SiHF            3.186-13 9.834-13 2.450-12 5.583-12
 SiHF3           1.518-11 1.985-11 1.735-11 1.415-11
 SiH2            1.367-12 4.387-12 1.291-11 3.546-11
 SiH2Br2         1.622-15 8.780-16 5.012-16 3.029-16
 SiH2CL2         3.790 -9 2.478 -9 1.529 -9 9.609-10
 SiH2F2          5.8062-9 6.9003-9 6.2972-9 5.5225-9
 SiH3            8.300-11 1.910-10 4.146-10 8.610-10
 SiH3Br          3.603-10 2.665-10 2.036-10 1.613-10
 SiH3CL          4.6391-7 3.7963-7 3.0329-7 2.4644-7
 SiH3F           5.4295-7 6.0018-7 5.8410-7 5.6150-7
 SiH4            2.2008-5 2.2390-5 2.3014-5 2.4037-5
 SiO             6.986-14 4.050-13 2.033-12 9.023-12
 SiS             2.536-12 1.171-11 4.767-11 1.744-10
 SiS2            4.733-18 4.289-17 3.219-16 2.046-15
 MgCL2(L)        1.1032-7 0.0000 0 0.0000 0 0.0000 0
 MgF2(cr)        3.6110-8 0.0000 0 0.0000 0 0.0000 0
 MgO(cr)         7.4738-5 7.5246-5 7.5453-5 7.5552-5
 MgS(cr)         3.3090-4 3.3087-4 3.3078-4 3.3060-4
 Mg2SiO4(cr)     1.4702-4 1.4692-4 1.4694-4 1.4704-4
 Si2N2O(cr)      1.9970-4 1.9957-4 1.9929-4 1.9877-4

  * THERMODYNAMIC PROPERTIES FITTED TO 20000.K

    PRODUCTS WHICH WERE CONSIDERED BUT WHOSE MOLE FRACTIONS
    WERE LESS THAN 1.000000E-15 FOR ALL ASSIGNED CONDITIONS

 BrCL            BrF             BrF3            BrF5            BrO            
 OBrO            BrOO            BrO3            Br2             BrBrO          
 BrOBr           CLF             CLF3            CLF5            CLO            
 CLO2            CL2             CL2O            *F              FO             
 FO2,FOO         FO2,OFO         F2              F2O             F2O2           
 FS2F            HNO             HNO2            HNO3            HOCL           
 HOF             HO2             HSO3F           H2O2            H2SO4          
 H3F3            H4F4            H5F5            H6F6            H7F7           
 MgN             *MgO            Mg(OH)2         Mg2             Mg2F4          
 *N              NF              NF2             NF3             *NH            
 NHF             NHF2            NH2F            NH2OH           *NO            
 NOCL            NOF             NOF3            NO2             NO2CL          
 NO2F            NO3             NO3F            N2F2            N2F4           
 N2H2            NH2NO2          N2H4            N2O             N2O3           
 N2O4            N2O5            N3              N3H             *O             
 *OH             *O2             O3              *S              SCL            
 SCL2            SF              SF2             SF3             SF4            
 SF5             SF6             SN              SO              SOF2           
 SO2             SO2CL2          SO2FCL          SO2F2           SO3            
 S2              S2CL2           S2F2            S2O             S3             
 S4              S5              S6              S7              S8             
 *Si             SiBr            SiBr2           SiBr3           SiBr4          
 SiCL3           SiF             SiF3            SiHBr3          SiN            
 SiO2            Si2             Si2F6           Si2N            Si3            
 Br2(cr)         Br2(L)          H2O(cr)         H2O(L)          H2SO4(L)       
 Mg(cr)          Mg(L)           MgBr2(cr)       MgBr2(L)        MgCL2(cr)      
 MgF2(L)         MgH2(b)         MgH2(L)         MgO(L)          Mg(OH)2(cr)    
 Mg(OH)2(L)      MgS(L)          MgSO4(II)       MgSO4(I)        MgSO4(L)       
 MgSiO3(I)       MgSiO3(II)      MgSiO3(III)     MgSiO3(L)       Mg2SiO4(L)     
 Mg3N2(cr)       NH4CL(II)       NH4CL(III)      NH4F(cr)        NH4F(L)        
 S(a)            S(b)            S(L)            SCL2(L)         S2CL2(L)       
 Si(cr)          Si(L)           SiO2(a-qz)      SiO2(b-qz)      SiO2(b-crt)    
 SiO2(L)         SiS(cr)         SiS(L)          SiS2(cr)        SiS2(L)        
 Si3N4(cr)      



