
 *******************************************************************************

         NASA-GLENN CHEMICAL EQUILIBRIUM PROGRAM CEA2, MAY 21, 2004
                   BY  BONNIE MCBRIDE AND SANFORD GORDON
      REFS: NASA RP-1311, PART I, 1994 AND NASA RP-1311, PART II, 1996

 *******************************************************************************



 prob
 case=saturn tp
 t,k= 1300,1350,1400,1450,1500,1600,1700,1800,1900,2000
 p,bar= 2036.69, 2336.48, 2669.30, 3037.79, 3444.73, 4385.78, 5517.62, 6867.92, 8
 466.92, 10347.58
 react
   name=H2 moles=1.0
   name=He moles=0.135
 #  name=CH4 moles=5.33e-3
   name=N2 moles = 2.27e-4
   name=H2S moles=3.76e-4
 #  name=PH3 moles = 7.28e-6
  
 # one time solar water
   name=O2 moles = 4.9e-4
 # all others are ten time solar
   name=HF moles = 7.26e-7
 #  name=Na moles = 3.48e-5
   name=Mg moles = 7.96e-4
   name=Si moles=6.47e-4
  
   name=HCL moles = 6.32e-6
 #  name=K moles = 2.14e-6
 #  name=Ca moles = 4.38e-5
 #  name=GeH4 moles = 8.93e-8
   name=HBr moles=6.93e-9
  
 output    trace=1e-15
 plot t p Si2N2O(cr) Mg2SiO4(cr) MgSiO3(I) MgSiO3(II) MgSiO3(III) MgSiO3(L) SiO2 
 SiO SiH4 SiH3 SiH2
  
 end

 OPTIONS: TP=T  HP=F  SP=F  TV=F  UV=F  SV=F  DETN=F  SHOCK=F  REFL=F  INCD=F
 RKT=F  FROZ=F  EQL=F  IONS=F  SIUNIT=T  DEBUGF=F  SHKDBG=F  DETDBG=F  TRNSPT=F

 T,K =  1300.0000  1350.0000  1400.0000  1450.0000  1500.0000  1600.0000  1700.0000

 T,K =  1800.0000  1900.0000  2000.0000

 TRACE= 1.00E-15  S/R= 0.000000E+00  H/R= 0.000000E+00  U/R= 0.000000E+00

 P,BAR =  2036.690000  2336.480000  2669.300000  3037.790000  3444.730000  4385.780000  5517.620000

 P,BAR =  6867.920000  8466.920000 10347.580000

    REACTANT           MOLES    (ENERGY/R),K   TEMP,K  DENSITY
        EXPLODED FORMULA
 N: H2               1.000000   0.000000E+00     0.00  0.0000
          H  2.00000
 N: He               0.135000   0.000000E+00     0.00  0.0000
          HE 1.00000
 N: N2               0.000227   0.000000E+00     0.00  0.0000
          N  2.00000
 N: H2S              0.000376   0.000000E+00     0.00  0.0000
          H  2.00000  S  1.00000
 N: O2               0.000490   0.000000E+00     0.00  0.0000
          O  2.00000
 N: HF               0.000001   0.000000E+00     0.00  0.0000
          H  1.00000  F  1.00000
 N: Mg               0.000796   0.000000E+00     0.00  0.0000
          MG 1.00000
 N: Si               0.000647   0.000000E+00     0.00  0.0000
          SI 1.00000
 N: HCL              0.000006   0.000000E+00     0.00  0.0000
          H  1.00000  CL 1.00000
 N: HBr              0.000000   0.000000E+00     0.00  0.0000
          H  1.00000  BR 1.00000

  SPECIES BEING CONSIDERED IN THIS SYSTEM
 (CONDENSED PHASE MAY HAVE NAME LISTED SEVERAL TIMES)
  LAST thermo.inp UPDATE:    9/09/04

  g 3/97  *Br              tpis89  BrCL             tpis89  BrF            
  tpis89  BrF3             tpis89  BrF5             j 3/96  BrO            
  j 3/96  OBrO             j 3/96  BrOO             j 3/96  BrO3           
  tpis89  Br2              j 3/96  BrBrO            j 3/96  BrOBr          
  g 7/97  *CL              tpis89  CLF              tpis89  CLF3           
  tpis89  CLF5             tpis89  CLO              g 7/93  CLO2           
  tpis89  CL2              tpis89  CL2O             g 5/97  *F             
  j 9/95  FO               j 9/95  FO2,FOO          j 9/95  FO2,OFO        
  tpis89  F2               g 4/99  F2O              j 9/95  F2O2           
  j 6/76  FS2F             g 6/97  *H               tpis89  HBr            
  tpis89  HCL              tpis89  *HF              g10/01  HNO            
  tpis89  HNO2             g 5/99  HNO3             g 1/01  HOCL           
  tpis89  HOF              g 4/02  HO2              j 6/72  HSO3F          
  tpis78  *H2              tpis89  H2F2             g 8/89  H2O            
  g 6/99  H2O2             g 4/01  H2S              tpis89  H2SO4          
  tpis89  H3F3             tpis89  H4F4             tpis89  H5F5           
  tpis89  H6F6             tpis89  H7F7             g 5/97  *He            
  g 6/97  *Mg              tpis96  MgBr             tpis96  MgBr2          
  tpis96  MgCL             tpis96  MgCL2            tpis96  MgF            
  tpis96  MgF2             tpis96  MgH              j 3/64  MgN            
  tpis96  *MgO             tpis96  MgOH             tpis96  Mg(OH)2        
  tpis96  MgS              tpis96  Mg2              j12/75  Mg2F4          
  g 5/97  *N               tpis89  NF               g 4/99  NF2            
  g 4/99  NF3              g 4/99  *NH              tpis89  NHF            
  tpis89  NHF2             g 3/01  NH2              tpis89  NH2F           
  tpis89  NH3              tpis89  NH2OH            tpis89  *NO            
  g 4/99  NOCL             g 4/99  NOF              tpis89  NOF3           
  g 4/99  NO2              g 4/99  NO2CL            g 4/99  NO2F           
  j12/64  NO3              tpis89  NO3F             tpis78  *N2            
  tpis89  N2F2             tpis89  N2F4             g 5/99  N2H2           
  tpis89  NH2NO2           g 4/99  N2H4             g 4/99  N2O            
  g 4/99  N2O3             tpis89  N2O4             g 4/99  N2O5           
  tpis89  N3               g 4/99  N3H              g 5/97  *O             
  g 4/02  *OH              tpis89  *O2              g 8/01  O3             
  g 5/97  *S               j 6/78  SCL              j 6/78  SCL2           
  tpis89  SF               tpis89  SF2              tpis89  SF3            
  tpis89  SF4              tpis89  SF5              tpis89  SF6            
  g10/01  SH               tpis89  SN               tpis89  SO             
  tpis89  SOF2             tpis89  SO2              j 6/71  SO2CL2         
  j 6/71  SO2FCL           tpis89  SO2F2            tpis89  SO3            
  tpis89  S2               g12/00  S2CL2            j 6/76  S2F2           
  tpis89  S2O              tpis89  S3               tpis89  S4             
  tpis89  S5               tpis89  S6               tpis89  S7             
  tpis89  S8               g 8/97  *Si              tpis91  SiBr           
  tpis91  SiBr2            tpis91  SiBr3            tpis91  SiBr4          
  tpis91  SiCL             tpis91  SiCL2            tpis91  SiCL3          
  tpis91  SiCL4            tpis91  SiF              tpis91  SiFCL          
  tpis91  SiF2             tpis91  SiF3             g 6/01  SiF4           
  tpis91  SiH              j12/76  SiHBr3           tpis91  SiHCL          
  j12/76  SiHCL3           tpis91  SiHF             j 6/76  SiHF3          
  g 3/01  SiH2             j12/76  SiH2Br2          j12/76  SiH2CL2        
  j 6/76  SiH2F2           g 3/99  SiH3             j12/76  SiH3Br         
  j12/76  SiH3CL           j 6/76  SiH3F            tpis91  SiH4           
  g 5/99  SiN              tpis91  SiO              tpis91  SiO2           
  tpis91  SiS              tpis91  SiS2             tpis91  Si2            
  g 6/01  Si2F6            j 3/67  Si2N             g 7/95  Si3            
  g 8/01  Br2(cr)          g 8/01  Br2(L)           g 8/01  Br2(L)         
  g11/99  H2O(cr)          g 8/01  H2O(L)           g 8/01  H2O(L)         
  j 9/77  H2SO4(L)         srd 93  Mg(cr)           srd 93  Mg(cr)         
  srd 93  Mg(L)            tpis96  MgBr2(cr)        tpis96  MgBr2(L)       
  tpis96  MgCL2(cr)        tpis96  MgCL2(cr)        tpis96  MgCL2(L)       
  tpis96  MgF2(cr)         tpis96  MgF2(cr)         tpis96  MgF2(L)        
  tpis96  MgH2(b)          tpis96  MgH2(L)          tpis96  MgO(cr)        
  tpis96  MgO(cr)          tpis96  MgO(L)           tpis96  Mg(OH)2(cr)    
  tpis96  Mg(OH)2(cr)      tpis96  Mg(OH)2(L)       tpis96  MgS(cr)        
  tpis96  MgS(cr)          tpis96  MgS(L)           tpis96  MgSO4(II)      
  tpis96  MgSO4(II)        tpis96  MgSO4(I)         tpis96  MgSO4(L)       
  j12/67  MgSiO3(I)        j12/67  MgSiO3(II)       j12/67  MgSiO3(III)    
  j12/67  MgSiO3(L)        g11/00  Mg2SiO4(cr)      g11/00  Mg2SiO4(cr)    
  g11/00  Mg2SiO4(L)       tpis96  Mg3N2(cr)        j 9/65  NH4CL(II)      
  j 9/65  NH4CL(III)       j 9/65  NH4CL(III)       tpis89  NH4F(cr)       
  tpis89  NH4F(cr)         tpis89  NH4F(L)          tpis89  S(a)           
  tpis89  S(b)             tpis89  S(L)             tpis89  S(L)           
  tpis89  S(L)             tpis89  S(L)             tpis89  S(L)           
  j 6/78  SCL2(L)          j 6/78  S2CL2(L)         tpis91  Si(cr)         
  tpis91  Si(cr)           tpis91  Si(L)            tpis91  SiO2(a-qz)     
  tpis91  SiO2(b-qz)       tpis91  SiO2(b-crt)      tpis91  SiO2(L)        
  tpis91  SiS(cr)          tpis91  SiS(L)           tpis91  SiS2(cr)       
  tpis91  SiS2(cr)         tpis91  SiS2(L)          g 7/95  Si2N2O(cr)     
  g 7/95  Si2N2O(cr)       tpis91  Si3N4(cr)        tpis91  Si3N4(cr)      

 O/F =   0.000000

                       EFFECTIVE FUEL     EFFECTIVE OXIDANT        MIXTURE
 ENTHALPY                  h(2)/R              h(1)/R               h0/R
 (KG-MOL)(K)/KG        0.00000000E+00      0.00000000E+00      0.00000000E+00

 KG-FORM.WT./KG             bi(2)               bi(1)               b0i
  *H                   0.76107833E+00      0.00000000E+00      0.76107833E+00
  *He                  0.51353297E-01      0.00000000E+00      0.51353297E-01
  *N                   0.17269924E-03      0.00000000E+00      0.17269924E-03
  *S                   0.14302844E-03      0.00000000E+00      0.14302844E-03
  *O                   0.37278690E-03      0.00000000E+00      0.37278690E-03
  *F                   0.27616662E-06      0.00000000E+00      0.27616662E-06
  *Mg                  0.30279426E-03      0.00000000E+00      0.30279426E-03
  *Si                  0.24611543E-03      0.00000000E+00      0.24611543E-03
  *CL                  0.24040951E-05      0.00000000E+00      0.24040951E-05
  *Br                  0.26361359E-08      0.00000000E+00      0.26361359E-08

 POINT ITN      T            H           HE          N           S 
                    O           F           MG          SI          CL
                    BR
   1   36    1300.000      -5.352     -11.437     -15.259     -19.596
                 -37.612     -54.802      -6.077      -4.925     -36.964
                 -38.002
 ADD  MgO(cr)        
   1    7    1300.000      -5.352     -11.437     -15.260     -19.595
                 -38.531     -54.755     -24.167      -4.928     -33.312
                 -36.121
 ADD  Si2N2O(cr)     
   1   11    1300.000      -5.351     -11.438     -17.936     -19.587
                 -53.553     -53.721      -9.146      -5.988     -35.420
                 -36.499
 ADD  MgS(cr)        
   1    9    1300.000      -5.351     -11.438     -24.499     -19.828
                 -40.119     -53.564     -22.580      -6.142     -32.899
                 -35.860
 ADD  SiO2(b-crt)    
   1    4    1300.000      -5.351     -11.438     -21.226     -22.928
                 -43.219     -51.970     -19.480      -7.865     -32.709
                 -35.750
 ADD  Mg2SiO4(cr)    

 SINGULAR MATRIX, ITERATION  0  VARIABLE 15(EQLBRM)

 TRY REMOVING CONDENSED SPECIES (EQLBRM)
 REMOVE  SiO2(b-crt)    
   1    3    1300.000      -5.351     -11.438     -19.722     -25.682
                 -45.973     -51.862     -16.725      -7.992     -32.789
                 -35.748
   2    3    1350.000      -5.403     -11.511     -19.024     -24.983
                 -44.392     -50.689     -16.415      -8.051     -32.500
                 -35.678
   3    3    1400.000      -5.455     -11.582     -18.410     -24.359
                 -42.949     -49.651     -16.111      -8.069     -32.242
                 -35.617
   4    3    1450.000      -5.505     -11.651     -17.870     -23.802
                 -41.628     -48.727     -15.813      -8.052     -32.009
                 -35.564
   5    4    1500.000      -5.554     -11.719     -17.393     -23.301
                 -40.414     -47.898     -15.523      -8.009     -31.798
                 -35.518
   6    4    1600.000      -5.649     -11.849     -16.585     -22.439
                 -38.257     -46.462     -14.974      -7.875     -31.429
                 -35.443
   7    4    1700.000      -5.740     -11.973     -15.924     -21.721
                 -36.393     -45.248     -14.474      -7.714     -31.118
                 -35.388
   8    4    1800.000      -5.827     -12.092     -15.370     -21.112
                 -34.764     -44.203     -14.023      -7.549     -30.855
                 -35.349




               THERMODYNAMIC EQUILIBRIUM PROPERTIES AT ASSIGNED

                           TEMPERATURE AND PRESSURE

 CASE = saturn         

             REACTANT                       MOLES         ENERGY      TEMP
                                                         KJ/KG-MOL      K
 NAME        H2                           1.0000000         0.000      0.000
 NAME        He                           0.1350000         0.000      0.000
 NAME        N2                           0.0002270         0.000      0.000
 NAME        H2S                          0.0003760         0.000      0.000
 NAME        O2                           0.0004900         0.000      0.000
 NAME        HF                           0.0000007         0.000      0.000
 NAME        Mg                           0.0007960         0.000      0.000
 NAME        Si                           0.0006470         0.000      0.000
 NAME        HCL                          0.0000063         0.000      0.000
 NAME        HBr                          0.0000000         0.000      0.000

 O/F=    0.00000  %FUEL=  0.000000  R,EQ.RATIO=*********  PHI,EQ.RATIO= 0.000000

 THERMODYNAMIC PROPERTIES

 P, BAR           2036.69  2036.69  2036.69  2036.69  2036.69  2036.69  2036.69  2036.69
 T, K             1300.00  1350.00  1400.00  1450.00  1500.00  1600.00  1700.00  1800.00
 RHO, KG/CU M    4.3630 1 4.2014 1 4.0514 1 3.9117 1 3.7814 1 3.5451 1 3.3368 1 3.1516 1
 H, KJ/KG         12193.1  12848.5  13508.2  14172.5  14841.2  16192.3  17561.9  18951.6
 U, KJ/KG         7524.99  8000.80  8481.06  8965.80  9455.06  10447.2  11458.2  12489.2
 G, KJ/KG        -50705.7 -53137.3 -55593.3 -58072.9 -60575.5 -65647.2 -70804.1 -76042.0
 S, KJ/(KG)(K)    48.3837  48.8783  49.3582  49.8244  50.2778  51.1497  51.9800  52.7742

 M, (1/n)           2.315    2.315    2.315    2.316    2.316    2.316    2.316    2.316
 MW, MOL WT         2.314    2.314    2.314    2.314    2.314    2.314    2.314    2.314
 (dLV/dLP)t      -1.00001 -1.00001 -1.00002 -1.00003 -1.00004 -1.00006 -1.00011 -1.00018
 (dLV/dLT)p        0.9999   0.9998   0.9998   0.9997   0.9996   0.9993   0.9990   0.9989
 Cp, KJ/(KG)(K)   13.0628  13.1509  13.2399  13.3295  13.4196  13.6023  13.7932  14.0056
 GAMMAs            1.3790   1.3754   1.3719   1.3683   1.3648   1.3579   1.3508   1.3434
 SON VEL,M/SEC     2537.2   2582.2   2626.2   2669.2   2711.3   2793.0   2871.4   2946.4

 MOLE FRACTIONS

 *Br             3.803-14 6.460-14 1.056-13 1.667-13 2.553-13 5.538-13 1.097-12 2.014-12
 *CL             1.070-13 2.342-13 4.813-13 9.373-13 1.741-12 5.316-12 1.417-11 3.369-11
 *H              2.3013-8 4.9578-8 1.0119-7 1.9677-7 3.6626-7 1.1313-6 3.0663-6 7.4514-6
 HBr             5.9573-9 5.9796-9 5.9888-9 5.9930-9 5.9888-9 5.9759-9 5.9495-9 5.9057-9
 HCL             4.8575-6 4.9979-6 5.0935-6 5.1577-6 5.2000-6 5.2419-6 5.2447-6 5.2146-6
 *HF             9.4744-8 1.2647-7 1.5754-7 1.8562-7 2.0974-7 2.4652-7 2.7132-7 2.8760-7
 *H2             8.8040-1 8.8039-1 8.8038-1 8.8037-1 8.8035-1 8.8029-1 8.8020-1 8.8006-1
 H2F2            6.694-15 1.124-14 1.651-14 2.181-14 2.662-14 3.396-14 3.846-14 4.082-14
 H2O             9.4520-8 2.0714-7 4.1967-7 7.9332-7 1.4127-6 3.8732-6 9.1256-6 1.9138-5
 H2S             7.4300-7 1.4569-6 2.6623-6 4.5716-6 7.4420-6 1.7335-5 3.5351-5 6.5156-5
 *He             1.1882-1 1.1882-1 1.1882-1 1.1882-1 1.1882-1 1.1883-1 1.1884-1 1.1885-1
 *Mg             1.1044-8 2.6816-8 6.2326-8 1.3915-7 2.9889-7 1.2321-6 4.4091-6 1.3892-5
 MgBr            6.322-13 1.078-12 1.800-12 2.951-12 4.745-12 1.156-11 2.592-11 5.369-11
 MgBr2           2.550-12 1.737-12 1.237-12 9.170-13 7.025-13 4.468-13 3.064-13 2.210-13
 MgCL            8.183-10 1.407 -9 2.357 -9 3.858 -9 6.180 -9 1.487 -8 3.285 -8 6.700 -8
 MgCL2           2.4567-7 1.8835-7 1.4798-7 1.1924-7 9.8311-8 7.0635-8 5.3528-8 4.1993-8
 MgF             1.177-11 2.659-11 5.505-11 1.060-10 1.923-10 5.499-10 1.361 -9 3.007 -9
 MgF2            9.109-12 1.285-11 1.640-11 1.935-11 2.157-11 2.410-11 2.491-11 2.475-11
 MgH             1.372-11 4.399-11 1.323-10 3.758-10 1.010 -9 6.260 -9 3.211 -8 1.394 -7
 MgN             1.980-18 1.658-17 1.179-16 7.239-16 3.902-15 8.099-14 1.155-12 1.210-11
 *MgO            5.626-20 4.912-19 3.674-18 2.393-17 1.375-16 3.271-15 5.354-14 6.413-13
 MgOH            2.901-14 1.395-13 5.983-13 2.317-12 8.183-12 8.019-11 5.974-10 3.542 -9
 Mg(OH)2         2.932-16 1.779-15 9.281-15 4.233-14 1.715-13 2.088-12 1.832-11 1.236-10
 MgS             3.562-14 1.702-13 7.265-13 2.803-12 9.871-12 9.647-11 7.190-10 4.275 -9
 Mg2             1.108-16 5.927-16 2.917-15 1.329-14 5.621-14 8.099-13 8.885-12 7.624-11
 *N              8.002-23 8.738-22 7.799-21 5.818-20 3.707-19 1.012-17 1.794-16 2.253-15
 *NH             1.018-18 7.347-18 4.460-17 2.323-16 1.058-15 1.569-14 1.622-13 1.260-12
 NH2             2.606-13 1.039-12 3.638-12 1.135-11 3.202-11 1.994-10 9.585-10 3.769 -9
 NH3             4.5434-6 7.9605-6 1.2981-5 1.9878-5 2.8881-5 5.4010-5 8.9848-5 1.3759-4
 *N2             4.691-10 2.116 -9 8.048 -9 2.634 -8 7.590 -8 4.666 -7 2.123 -6 7.741 -6
 N2H2            2.919-21 2.664-20 1.952-19 1.178-18 6.015-18 1.047-16 1.199-15 9.969-15
 N2H4            2.356-19 1.424-18 7.108-18 3.000-17 1.097-16 1.041-15 6.975-15 3.597-14
 *OH             3.902-17 2.274-16 1.143-15 5.039-15 1.978-14 2.273-13 1.898-12 1.226-11
 *S              9.979-17 5.609-16 2.726-15 1.164-14 4.438-14 4.834-13 3.847-12 2.380-11
 SH              7.655-12 2.666-11 8.303-11 2.342-10 6.061-10 3.268 -9 1.398 -8 4.972 -8
 SN              1.140-21 1.303-20 1.186-19 8.819-19 5.505-18 1.392-16 2.229-15 2.497-14
 SO              1.510-22 1.696-21 1.533-20 1.144-19 7.209-19 1.884-17 3.143-16 3.675-15
 S2              2.621-18 1.875-17 1.114-16 5.619-16 2.457-15 3.306-14 3.063-13 2.121-12
 *Si             4.994-16 2.371-15 1.048-14 4.340-14 1.685-13 2.097-12 2.045-11 1.596-10
 SiBr            9.912-16 2.094-15 4.358-15 8.935-15 1.798-14 6.789-14 2.304-13 7.006-13
 SiCL            1.074-13 2.512-13 5.708-13 1.265-12 2.731-12 1.165-11 4.384-11 1.457-10
 SiCL2           1.037-12 1.216-12 1.445-12 1.744-12 2.127-12 3.204-12 4.786-12 6.958-12
 SiF             6.019-16 1.909-15 5.530-15 1.483-14 3.721-14 1.979-13 8.697-13 3.253-12
 SiFCL           8.623-13 1.166-12 1.519-12 1.927-12 2.396-12 3.550-12 5.021-12 6.816-12
 SiF2            1.804-13 2.814-13 4.020-13 5.365-13 6.808-13 9.925-13 1.330-12 1.688-12
 SiF4            1.252-14 7.144-15 3.650-15 1.729-15 7.867-16 1.595-16 3.444-17 8.227-18
 SiH             3.695-13 1.312-12 4.426-12 1.424-11 4.371-11 3.552-10 2.376 -9 1.326 -8
 SiHCL           1.930-11 3.321-11 5.678-11 9.658-11 1.629-10 4.444-10 1.128 -9 2.643 -9
 SiHCL3          5.509-13 2.994-13 1.733-13 1.066-13 6.926-14 3.322-14 1.805-14 1.067-14
 SiHF            1.023-11 2.016-11 3.757-11 6.686-11 1.145-10 3.056-10 7.327-10 1.604 -9
 SiHF3           1.027-11 6.950-12 4.364-12 2.607-12 1.517-12 5.098-13 1.797-13 6.803-14
 SiH2            8.201-11 2.088-10 5.177-10 1.252 -9 2.943 -9 1.479 -8 6.489 -8 2.496 -7
 SiH2CL2         6.436-10 4.418-10 3.200-10 2.438-10 1.939-10 1.351-10 1.027-10 8.227-11
 SiH2F2          4.551 -9 3.608 -9 2.753 -9 2.052 -9 1.514 -9 8.297-10 4.711-10 2.798-10
 SiH3            1.6518-9 3.3137-9 6.5888-9 1.2972-8 2.5182-8 8.9452-8 2.8910-7 8.4709-7
 SiH3Br          1.362-10 1.197-10 1.105-10 1.065-10 1.060-10 1.124-10 1.249-10 1.415-10
 SiH3CL          2.1139-7 1.8548-7 1.6998-7 1.6199-7 1.5932-7 1.6420-7 1.7734-7 1.9531-7
 SiH3F           5.3505-7 5.0520-7 4.7580-7 4.4905-7 4.2589-7 3.8994-7 3.6467-7 3.4632-7
 SiH4            2.6268-5 2.9321-5 3.3848-5 4.0189-5 4.8692-5 7.3711-5 1.1246-4 1.6937-4
 SiN             1.158-19 1.005-18 7.551-18 4.977-17 2.913-16 7.263-15 1.253-13 1.584-12
 SiO             2.948-11 1.086-10 3.713-10 1.185 -9 3.547 -9 2.656 -8 1.600 -7 7.968 -7
 SiO2            1.141-20 1.025-19 7.839-19 5.197-18 3.029-17 7.334-16 1.208-14 1.445-13
 SiS             4.765-10 1.487 -9 4.352 -9 1.202 -8 3.139 -8 1.834 -7 8.859 -7 3.616 -6
 SiS2            9.748-15 4.696-14 2.013-13 7.775-13 2.733-12 2.637-11 1.921-10 1.107 -9
 Si2             1.682-20 1.246-19 8.669-19 5.675-18 3.481-17 1.057-15 2.380-14 4.025-13
 Si2N            4.462-20 3.822-19 2.948-18 2.066-17 1.319-16 4.098-15 9.037-14 1.462-12
 Si3             5.207-23 4.622-22 3.957-21 3.261-20 2.557-19 1.290-17 4.797-16 1.305-14
 MgO(cr)         7.5365-5 7.5280-5 7.5401-5 7.6044-5 7.7613-5 8.5402-5 1.0227-4 1.2935-4
 MgS(cr)         3.3018-4 3.2947-4 3.2827-4 3.2635-4 3.2347-4 3.1344-4 2.9473-4 2.6219-4
 Mg2SiO4(cr)     1.4739-4 1.4781-4 1.4836-4 1.4897-4 1.4956-4 1.5024-4 1.4959-4 1.4754-4
 Si2N2O(cr)      1.9752-4 1.9581-4 1.9329-4 1.8983-4 1.8528-4 1.7234-4 1.5277-4 1.2331-4

  * THERMODYNAMIC PROPERTIES FITTED TO 20000.K

    PRODUCTS WHICH WERE CONSIDERED BUT WHOSE MOLE FRACTIONS
    WERE LESS THAN 1.000000E-15 FOR ALL ASSIGNED CONDITIONS

 BrCL            BrF             BrF3            BrF5            BrO            
 OBrO            BrOO            BrO3            Br2             BrBrO          
 BrOBr           CLF             CLF3            CLF5            CLO            
 CLO2            CL2             CL2O            *F              FO             
 FO2,FOO         FO2,OFO         F2              F2O             F2O2           
 FS2F            HNO             HNO2            HNO3            HOCL           
 HOF             HO2             HSO3F           H2O2            H2SO4          
 H3F3            H4F4            H5F5            H6F6            H7F7           
 Mg2F4           NF              NF2             NF3             NHF            
 NHF2            NH2F            NH2OH           *NO             NOCL           
 NOF             NOF3            NO2             NO2CL           NO2F           
 NO3             NO3F            N2F2            N2F4            NH2NO2         
 N2O             N2O3            N2O4            N2O5            N3             
 N3H             *O              *O2             O3              SCL            
 SCL2            SF              SF2             SF3             SF4            
 SF5             SF6             SOF2            SO2             SO2CL2         
 SO2FCL          SO2F2           SO3             S2CL2           S2F2           
 S2O             S3              S4              S5              S6             
 S7              S8              SiBr2           SiBr3           SiBr4          
 SiCL3           SiCL4           SiF3            SiHBr3          SiH2Br2        
 Si2F6           Br2(cr)         Br2(L)          H2O(cr)         H2O(L)         
 H2SO4(L)        Mg(cr)          Mg(L)           MgBr2(cr)       MgBr2(L)       
 MgCL2(cr)       MgCL2(L)        MgF2(cr)        MgF2(L)         MgH2(b)        
 MgH2(L)         MgO(L)          Mg(OH)2(cr)     Mg(OH)2(L)      MgS(L)         
 MgSO4(II)       MgSO4(I)        MgSO4(L)        MgSiO3(I)       MgSiO3(II)     
 MgSiO3(III)     MgSiO3(L)       Mg2SiO4(L)      Mg3N2(cr)       NH4CL(II)      
 NH4CL(III)      NH4F(cr)        NH4F(L)         S(a)            S(b)           
 S(L)            SCL2(L)         S2CL2(L)        Si(cr)          Si(L)          
 SiO2(a-qz)      SiO2(b-qz)      SiO2(b-crt)     SiO2(L)         SiS(cr)        
 SiS(L)          SiS2(cr)        SiS2(L)         Si3N4(cr)      






 POINT ITN      T            H           HE          N           S 
                    O           F           MG          SI          CL
                    BR
   1    4    1900.000      -5.912     -12.205     -14.898     -20.591
                 -33.327     -43.292     -13.618      -7.391     -30.633
                 -35.326
   2    3    2000.000      -5.993     -12.314     -14.490     -20.138
                 -32.049     -42.491     -13.256      -7.246     -30.450
                 -35.321
 REMOVE  Si2N2O(cr)     
   2    2    2000.000      -5.993     -12.314     -14.490     -20.138
                 -32.049     -42.491     -13.257      -7.246     -30.450
                 -35.321

 SINGULAR MATRIX, ITERATION  1  VARIABLE 10(EQLBRM)
   3   19    1300.000      -5.282     -11.300     -19.636     -25.625
                 -45.916     -51.812     -16.783      -8.107     -32.717
                 -35.680
   4    3    1350.000      -5.335     -11.374     -18.946     -24.931
                 -44.340     -50.647     -16.467      -8.155     -32.429
                 -35.610
   5    3    1400.000      -5.386     -11.445     -18.340     -24.312
                 -42.902     -49.615     -16.158      -8.163     -32.172
                 -35.549
   6    4    1450.000      -5.436     -11.514     -17.807     -23.760
                 -41.586     -48.697     -15.855      -8.136     -31.940
                 -35.496
   7    4    1500.000      -5.485     -11.582     -17.336     -23.263
                 -40.376     -47.871     -15.561      -8.085     -31.730
                 -35.450
   8    4    1600.000      -5.580     -11.712     -16.536     -22.406
                 -38.224     -46.437     -15.007      -7.941     -31.361
                 -35.375




               THERMODYNAMIC EQUILIBRIUM PROPERTIES AT ASSIGNED

                           TEMPERATURE AND PRESSURE

 CASE = saturn         

             REACTANT                       MOLES         ENERGY      TEMP
                                                         KJ/KG-MOL      K
 NAME        H2                           1.0000000         0.000      0.000
 NAME        He                           0.1350000         0.000      0.000
 NAME        N2                           0.0002270         0.000      0.000
 NAME        H2S                          0.0003760         0.000      0.000
 NAME        O2                           0.0004900         0.000      0.000
 NAME        HF                           0.0000007         0.000      0.000
 NAME        Mg                           0.0007960         0.000      0.000
 NAME        Si                           0.0006470         0.000      0.000
 NAME        HCL                          0.0000063         0.000      0.000
 NAME        HBr                          0.0000000         0.000      0.000

 O/F=    0.00000  %FUEL=  0.000000  R,EQ.RATIO=*********  PHI,EQ.RATIO= 0.000000

 THERMODYNAMIC PROPERTIES

 P, BAR           2036.69  2036.69  2336.48  2336.48  2336.48  2336.48  2336.48  2336.48
 T, K             1900.00  2000.00  1300.00  1350.00  1400.00  1450.00  1500.00  1600.00
 RHO, KG/CU M    2.9859 1 2.8366 1 5.0052 1 4.8198 1 4.6477 1 4.4875 1 4.3380 1 4.0670 1
 H, KJ/KG         20364.7  21808.9  12193.2  12848.6  13508.4  14172.7  14841.5  16192.8
 U, KJ/KG         13543.6  14628.8  7525.06  8000.92  8481.24  8966.06  9455.42  10447.9
 G, KJ/KG        -81357.9 -86748.9 -50064.7 -52471.6 -54902.9 -57357.9 -59835.9 -64858.3
 S, KJ/(KG)(K)    53.5382  54.2789  47.8907  48.3853  48.8652  49.3315  49.7849  50.6570

 M, (1/n)           2.316    2.316    2.315    2.315    2.315    2.316    2.316    2.316
 MW, MOL WT         2.315    2.315    2.314    2.314    2.314    2.314    2.314    2.314
 (dLV/dLP)t      -1.00031 -1.00048 -1.00001 -1.00001 -1.00002 -1.00003 -1.00004 -1.00007
 (dLV/dLT)p        0.9993   1.0029   0.9999   0.9998   0.9997   0.9996   0.9995   0.9992
 Cp, KJ/(KG)(K)   14.2688  14.4617  13.0635  13.1519  13.2412  13.3312  13.4217  13.6051
 GAMMAs            1.3350   1.3320   1.3789   1.3754   1.3718   1.3682   1.3647   1.3577
 SON VEL,M/SEC     3017.6   3092.5   2537.1   2582.1   2626.1   2669.1   2711.2   2792.8

 MOLE FRACTIONS

 *Br             3.463-12 5.607-12 3.551-14 6.028-14 9.847-14 1.555-13 2.382-13 5.164-13
 *CL             7.266-11 1.438-10 1.003-13 2.191-13 4.499-13 8.753-13 1.624-12 4.958-12
 *F              1.425-15 4.561-15 1.100-20 4.998-20 1.943-19 6.620-19 2.019-18 1.442-17
 *H              1.6515-5 3.3841-5 2.1486-8 4.6289-8 9.4478-8 1.8371-7 3.4195-7 1.0563-6
 HBr             5.8375-9 5.7254-9 5.9580-9 5.9756-9 5.9840-9 5.9872-9 5.9827-9 5.9689-9
 HCL             5.1481-6 5.0373-6 4.8759-6 5.0090-6 5.0988-6 5.1588-6 5.1981-6 5.2362-6
 *HF             2.9748-7 3.0231-7 9.2976-8 1.2318-7 1.5243-7 1.7870-7 2.0125-7 2.3583-7
 HNO             1.177-16 1.044-15 5.348-26 8.092-25 9.551-24 9.063-23 7.118-22 2.750-20
 *H2             8.7984-1 8.7953-1 8.8039-1 8.8039-1 8.8038-1 8.8036-1 8.8034-1 8.8028-1
 H2F2            4.160-14 4.120-14 7.395-15 1.223-14 1.773-14 2.319-14 2.811-14 3.565-14
 H2O             3.6585-5 6.4905-5 1.0011-7 2.1822-7 4.3973-7 8.2727-7 1.4674-6 4.0022-6
 H2S             1.1086-4 1.7693-4 7.8694-7 1.5349-6 2.7896-6 4.7672-6 7.7302-6 1.7912-5
 *He             1.1886-1 1.1888-1 1.1882-1 1.1882-1 1.1882-1 1.1882-1 1.1882-1 1.1883-1
 *Mg             3.9119-5 9.9757-5 9.0891-9 2.2188-8 5.1850-8 1.1632-7 2.5083-7 1.0394-6
 MgBr            1.033-10 1.853-10 5.574-13 9.545-13 1.602-12 2.640-12 4.261-12 1.043-11
 MgBr2           1.650-13 1.253-13 2.408-12 1.647-12 1.179-12 8.777-13 6.749-13 4.314-13
 MgCL            1.268 -7 2.239 -7 7.240-10 1.250 -9 2.102 -9 3.455 -9 5.552 -9 1.342 -8
 MgCL2           3.3623-8 2.7125-8 2.3371-7 1.7957-7 1.4152-7 1.1440-7 9.4578-8 6.8212-8
 MgF             6.055 -9 1.126 -8 1.019-11 2.295-11 4.746-11 9.137-11 1.658-10 4.753-10
 MgF2            2.399-11 2.282-11 8.282-12 1.157-11 1.465-11 1.720-11 1.911-11 2.134-11
 MgH             5.229 -7 1.727 -6 1.209-11 3.898-11 1.179-10 3.365-10 9.082-10 5.657 -9
 MgN             9.818-11 6.414-10 1.777-18 1.484-17 1.052-16 6.443-16 3.466-15 7.176-14
 *MgO            5.903-12 4.342-11 4.905-20 4.282-19 3.203-18 2.086-17 1.199-16 2.852-15
 MgOH            1.733 -8 7.200 -8 2.709-14 1.302-13 5.586-13 2.163-12 7.640-12 7.487-11
 Mg(OH)2         6.720-10 3.052 -9 3.105-16 1.874-15 9.725-15 4.414-14 1.782-13 2.157-12
 MgS             2.102 -8 8.791 -8 3.105-14 1.484-13 6.333-13 2.443-12 8.605-12 8.410-11
 Mg2             5.268-10 3.007 -9 8.606-17 4.655-16 2.316-15 1.065-14 4.541-14 6.612-13
 *N              2.133-14 1.596-13 7.603-23 8.237-22 7.292-21 5.400-20 3.421-19 9.262-18
 *NH             7.750-12 3.932-11 1.036-18 7.417-18 4.466-17 2.309-16 1.045-15 1.538-14
 NH2             1.261 -8 3.699 -8 2.840-13 1.124-12 3.902-12 1.208-11 3.389-11 2.094-10
 NH3             1.9807-4 2.7200-4 5.3043-6 9.2196-6 1.4913-5 2.2672-5 3.2747-5 6.0762-5
 NH2OH           1.571-15 8.633-15 7.140-23 6.372-22 4.610-21 2.775-20 1.426-19 2.560-18
 *NO             8.237-15 7.089-14 4.371-24 6.459-23 7.457-22 6.928-21 5.334-20 1.985-18
 *N2             2.379 -5 6.388 -5 4.858-10 2.157 -9 8.071 -9 2.604 -8 7.415 -8 4.488 -7
 N2H2            6.436-14 3.386-13 3.468-21 3.115-20 2.246-19 1.336-18 6.741-18 1.155-16
 N2H4            1.512-13 5.396-13 3.211-19 1.910-18 9.381-18 3.903-17 1.411-16 1.318-15
 *O              7.914-16 6.978-15 7.457-25 9.118-24 9.122-23 7.636-22 5.461-21 1.868-19
 *OH             6.414-11 2.817-10 3.858-17 2.237-16 1.119-15 4.906-15 1.918-14 2.193-13
 *S              1.197-10 5.067-10 9.213-17 5.151-16 2.490-15 1.058-14 4.018-14 4.354-13
 SCL             3.496-16 1.321-15 6.271-22 3.270-21 1.471-20 5.816-20 2.057-19 1.947-18
 SH              1.523 -7 4.125 -7 7.570-12 2.622-11 8.123-11 2.281-10 5.878-10 3.153 -9
 SN              2.099-13 1.394-12 1.147-21 1.294-20 1.162-19 8.537-19 5.277-18 1.317-16
 SO              3.220-14 2.226-13 1.477-22 1.641-21 1.468-20 1.084-19 6.780-19 1.754-17
 S2              1.161-11 5.243-11 2.563-18 1.814-17 1.066-16 5.326-16 2.311-15 3.077-14
 *Si             1.022 -9 5.486 -9 3.881-16 1.862-15 8.323-15 3.479-14 1.361-13 1.712-12
 SiBr            1.920-12 4.757-12 8.251-16 1.761-15 3.703-15 7.664-15 1.554-14 5.930-14
 SiCL            4.313-10 1.144 -9 8.976-14 2.118-13 4.859-13 1.086-12 2.362-12 1.018-11
 SiCL2           9.755-12 1.308-11 9.316-13 1.100-12 1.319-12 1.604-12 1.970-12 2.995-12
 SiF             1.059-11 3.048-11 4.916-16 1.564-15 4.550-15 1.226-14 3.090-14 1.656-13
 SiFCL           8.897-12 1.115-11 7.572-13 1.025-12 1.340-12 1.706-12 2.130-12 3.177-12
 SiF2            2.052-12 2.404-12 1.548-13 2.405-13 3.428-13 4.573-13 5.809-13 8.506-13
 SiF4            2.179-18 6.324-19 1.188-14 6.647-15 3.343-15 1.567-15 7.090-16 1.436-16
 SiH             6.285 -8 2.575 -7 3.075-13 1.103-12 3.764-12 1.223-11 3.782-11 3.106-10
 SiHCL           5.723 -9 1.146 -8 1.727-11 2.999-11 5.177-11 8.884-11 1.509-10 4.157-10
 SiHCL3          6.658-15 4.282-15 5.698-13 3.115-13 1.817-13 1.126-13 7.356-14 3.558-14
 SiHF            3.242 -9 6.094 -9 8.951-12 1.770-11 3.311-11 5.920-11 1.019-10 2.738-10
 SiHF3           2.766-14 1.196-14 9.926-12 6.639-12 4.131-12 2.454-12 1.425-12 4.795-13
 SiH2            8.503 -7 2.593 -6 7.310-11 1.881-10 4.715-10 1.151 -9 2.727 -9 1.385 -8
 SiH2CL2         6.792-11 5.675-11 6.632-10 4.587-10 3.351-10 2.573-10 2.060-10 1.449-10
 SiH2F2          1.732-10 1.108-10 4.483 -9 3.538 -9 2.693 -9 2.007 -9 1.483 -9 8.158-10
 SiH3            2.2614-6 5.5343-6 1.5772-9 3.1979-9 6.4276-9 1.2777-8 2.4998-8 8.9730-8
 SiH3Br          1.608-10 1.812-10 1.393-10 1.237-10 1.154-10 1.122-10 1.126-10 1.206-10
 SiH3CL          2.1598-7 2.3707-7 2.1700-7 1.9214-7 1.7779-7 1.7093-7 1.6933-7 1.7623-7
 SiH3F           3.3203-7 3.1934-7 5.3697-7 5.0863-7 4.8104-7 4.5609-7 4.3449-7 4.0079-7
 SiH4            2.4968-4 3.5857-4 2.6863-5 3.0307-5 3.5366-5 4.2398-5 5.1771-5 7.9194-5
 SiN             1.535-11 1.185-10 9.806-20 8.538-19 6.430-18 4.249-17 2.491-16 6.228-15
 SiO             3.362 -6 1.228 -5 2.427-11 8.990-11 3.089-10 9.907-10 2.977 -9 2.241 -8
 SiO2            1.320-12 9.585-12 9.949-21 8.931-20 6.833-19 4.530-18 2.640-17 6.393-16
 SiS             1.274 -5 3.950 -5 3.922-10 1.230 -9 3.620 -9 1.004 -8 2.635 -8 1.548 -7
 SiS2            5.239 -9 2.097 -8 8.497-15 4.094-14 1.755-13 6.778-13 2.382-12 2.299-11
 Si2             5.237-12 5.373-11 1.165-20 8.820-20 6.269-19 4.183-18 2.606-17 8.079-16
 Si2N            1.800-11 1.739-10 3.369-20 2.924-19 2.287-18 1.622-17 1.046-16 3.291-15
 Si3             2.647-13 4.088-12 3.215-23 2.947-22 2.606-21 2.211-20 1.774-19 9.240-18
 MgO(cr)         1.6162-4 1.8410-4 7.5106-5 7.4844-5 7.4743-5 7.5126-5 7.6408-5 8.3661-5
 MgS(cr)         2.0727-4 1.1413-4 3.3014-4 3.2939-4 3.2814-4 3.2616-4 3.2319-4 3.1289-4
 Mg2SiO4(cr)     1.4606-4 1.5041-4 1.4755-4 1.4807-4 1.4876-4 1.4954-4 1.5034-4 1.5149-4
 Si2N2O(cr)      7.7038-5 0.0000 0 1.9714-4 1.9518-4 1.9233-4 1.8843-4 1.8335-4 1.6898-4

  * THERMODYNAMIC PROPERTIES FITTED TO 20000.K

    PRODUCTS WHICH WERE CONSIDERED BUT WHOSE MOLE FRACTIONS
    WERE LESS THAN 1.000000E-15 FOR ALL ASSIGNED CONDITIONS

 BrCL            BrF             BrF3            BrF5            BrO            
 OBrO            BrOO            BrO3            Br2             BrBrO          
 BrOBr           CLF             CLF3            CLF5            CLO            
 CLO2            CL2             CL2O            FO              FO2,FOO        
 FO2,OFO         F2              F2O             F2O2            FS2F           
 HNO2            HNO3            HOCL            HOF             HO2            
 HSO3F           H2O2            H2SO4           H3F3            H4F4           
 H5F5            H6F6            H7F7            Mg2F4           NF             
 NF2             NF3             NHF             NHF2            NH2F           
 NOCL            NOF             NOF3            NO2             NO2CL          
 NO2F            NO3             NO3F            N2F2            N2F4           
 NH2NO2          N2O             N2O3            N2O4            N2O5           
 N3              N3H             *O2             O3              SCL2           
 SF              SF2             SF3             SF4             SF5            
 SF6             SOF2            SO2             SO2CL2          SO2FCL         
 SO2F2           SO3             S2CL2           S2F2            S2O            
 S3              S4              S5              S6              S7             
 S8              SiBr2           SiBr3           SiBr4           SiCL3          
 SiCL4           SiF3            SiHBr3          SiH2Br2         Si2F6          
 Br2(cr)         Br2(L)          H2O(cr)         H2O(L)          H2SO4(L)       
 Mg(cr)          Mg(L)           MgBr2(cr)       MgBr2(L)        MgCL2(cr)      
 MgCL2(L)        MgF2(cr)        MgF2(L)         MgH2(b)         MgH2(L)        
 MgO(L)          Mg(OH)2(cr)     Mg(OH)2(L)      MgS(L)          MgSO4(II)      
 MgSO4(I)        MgSO4(L)        MgSiO3(I)       MgSiO3(II)      MgSiO3(III)    
 MgSiO3(L)       Mg2SiO4(L)      Mg3N2(cr)       NH4CL(II)       NH4CL(III)     
 NH4F(cr)        NH4F(L)         S(a)            S(b)            S(L)           
 SCL2(L)         S2CL2(L)        Si(cr)          Si(L)           SiO2(a-qz)     
 SiO2(b-qz)      SiO2(b-crt)     SiO2(L)         SiS(cr)         SiS(L)         
 SiS2(cr)        SiS2(L)         Si3N4(cr)      






 POINT ITN      T            H           HE          N           S 
                    O           F           MG          SI          CL
                    BR
   1    4    1700.000      -5.671     -11.836     -15.879     -21.691
                 -36.363     -45.224     -14.504      -7.774     -31.051
                 -35.320
   2    4    1800.000      -5.759     -11.954     -15.328     -21.084
                 -34.736     -44.178     -14.051      -7.606     -30.787
                 -35.282
   3    4    1900.000      -5.843     -12.068     -14.857     -20.563
                 -33.300     -43.266     -13.646      -7.446     -30.565
                 -35.258
   4    3    2000.000      -5.924     -12.176     -14.451     -20.113
                 -32.024     -42.464     -13.282      -7.297     -30.381
                 -35.252
 REMOVE  Si2N2O(cr)     
   4    2    2000.000      -5.924     -12.176     -14.496     -20.095
                 -32.005     -42.445     -13.300      -7.333     -30.379
                 -35.250

 SINGULAR MATRIX, ITERATION  1  VARIABLE 10(EQLBRM)
   5   19    1300.000      -5.216     -11.167     -19.554     -25.570
                 -45.861     -51.766     -16.837      -8.216     -32.647
                 -35.614
   6    3    1350.000      -5.268     -11.240     -18.872     -24.882
                 -44.291     -50.608     -16.517      -8.254     -32.361
                 -35.544
   7    3    1400.000      -5.320     -11.312     -18.274     -24.268
                 -42.858     -49.583     -16.202      -8.250     -32.105
                 -35.483
   8    4    1450.000      -5.370     -11.381     -17.749     -23.720
                 -41.547     -48.669     -15.894      -8.214     -31.874
                 -35.430




               THERMODYNAMIC EQUILIBRIUM PROPERTIES AT ASSIGNED

                           TEMPERATURE AND PRESSURE

 CASE = saturn         

             REACTANT                       MOLES         ENERGY      TEMP
                                                         KJ/KG-MOL      K
 NAME        H2                           1.0000000         0.000      0.000
 NAME        He                           0.1350000         0.000      0.000
 NAME        N2                           0.0002270         0.000      0.000
 NAME        H2S                          0.0003760         0.000      0.000
 NAME        O2                           0.0004900         0.000      0.000
 NAME        HF                           0.0000007         0.000      0.000
 NAME        Mg                           0.0007960         0.000      0.000
 NAME        Si                           0.0006470         0.000      0.000
 NAME        HCL                          0.0000063         0.000      0.000
 NAME        HBr                          0.0000000         0.000      0.000

 O/F=    0.00000  %FUEL=  0.000000  R,EQ.RATIO=*********  PHI,EQ.RATIO= 0.000000

 THERMODYNAMIC PROPERTIES

 P, BAR           2336.48  2336.48  2336.48  2336.48  2669.30  2669.30  2669.30  2669.30
 T, K             1700.00  1800.00  1900.00  2000.00  1300.00  1350.00  1400.00  1450.00
 RHO, KG/CU M    3.8280 1 3.6156 1 3.4255 1 3.2543 1 5.7181 1 5.5064 1 5.3098 1 5.1267 1
 H, KJ/KG         17562.8  18952.7  20365.6  21806.3  12193.3  12848.7  13508.6  14173.0
 U, KJ/KG         11459.1  12490.4  13544.8  14626.7  7525.14  8001.05  8481.44  8966.35
 G, KJ/KG        -69965.9 -75154.6 -80421.2 -85763.0 -49443.0 -51826.1 -54233.5 -56664.5
 S, KJ/(KG)(K)    51.4875  52.2818  53.0457  53.7847  47.4125  47.9072  48.3872  48.8535

 M, (1/n)           2.316    2.316    2.316    2.316    2.315    2.315    2.315    2.316
 MW, MOL WT         2.314    2.314    2.315    2.315    2.314    2.314    2.314    2.314
 (dLV/dLP)t      -1.00012 -1.00019 -1.00032 -1.00043 -1.00001 -1.00001 -1.00002 -1.00003
 (dLV/dLT)p        0.9989   0.9987   0.9988   1.0023   0.9999   0.9998   0.9997   0.9996
 Cp, KJ/(KG)(K)   13.7961  14.0067  14.2625  14.4413  13.0643  13.1530  13.2426  13.3329
 GAMMAs            1.3505   1.3431   1.3347   1.3321   1.3789   1.3753   1.3717   1.3681
 SON VEL,M/SEC     2871.1   2946.1   3017.3   3092.5   2537.1   2582.0   2626.0   2669.0

 MOLE FRACTIONS

 *Br             1.023-12 1.879-12 3.231-12 5.245-12 3.321-14 5.635-14 9.204-14 1.454-13
 *CL             1.321-11 3.141-11 6.778-11 1.346-10 9.410-14 2.054-13 4.212-13 8.188-13
 *F              7.838-17 3.445-16 1.275-15 4.163-15 1.009-20 4.546-20 1.756-19 5.954-19
 *H              2.8628-6 6.9569-6 1.5418-5 3.1595-5 2.0102-8 4.3307-8 8.8392-8 1.7188-7
 HBr             5.9422-9 5.8993-9 5.8335-9 5.7366-9 5.9548-9 5.9713-9 5.9788-9 5.9811-9
 HCL             5.2374-6 5.2077-6 5.1439-6 5.0510-6 4.8918-6 5.0178-6 5.1024-6 5.1584-6
 *HF             2.5948-7 2.7528-7 2.8505-7 2.9553-7 9.1093-8 1.1978-7 1.4725-7 1.7181-7
 HNO             6.453-19 1.022-17 1.176-16 1.012-15 5.733-26 8.558-25 9.970-24 9.353-23
 *H2             8.8018-1 8.8003-1 8.7981-1 8.7949-1 8.8039-1 8.8039-1 8.8037-1 8.8036-1
 H2F2            4.036-14 4.290-14 4.381-14 4.517-14 8.110-15 1.321-14 1.891-14 2.449-14
 H2O             9.4033-6 1.9690-5 3.7595-5 6.7796-5 1.0571-7 2.2919-7 4.5942-7 8.6039-7
 H2S             3.6427-5 6.7035-5 1.1392-4 1.8481-4 8.3099-7 1.6121-6 2.9145-6 4.9581-6
 *He             1.1884-1 1.1885-1 1.1887-1 1.1888-1 1.1882-1 1.1882-1 1.1882-1 1.1882-1
 *Mg             3.7298-6 1.1769-5 3.3182-5 8.3243-5 7.5341-9 1.8492-8 4.3440-8 9.7898-8
 MgBr            2.345-11 4.867-11 9.382-11 1.660-10 4.936-13 8.497-13 1.434-12 2.372-12
 MgBr2           2.966-13 2.144-13 1.603-13 1.204-13 2.278-12 1.566-12 1.126-12 8.422-13
 MgCL            2.972 -8 6.072 -8 1.151 -7 2.007 -7 6.436-10 1.115 -9 1.884 -9 3.107 -9
 MgCL2           5.1804-8 4.0709-8 3.2666-8 2.6110-8 2.2277-7 1.7158-7 1.3565-7 1.0998-7
 MgF             1.179 -9 2.612 -9 5.271 -9 9.837 -9 8.842-12 1.988-11 4.106-11 7.902-11
 MgF2            2.211-11 2.204-11 2.143-11 2.088-11 7.529-12 1.042-11 1.309-11 1.528-11
 MgH             2.909 -8 1.265 -7 4.750 -7 1.543 -6 1.072-11 3.472-11 1.056-10 3.027-10
 MgN             1.022-12 1.070-11 8.676-11 5.322-10 1.598-18 1.331-17 9.411-17 5.752-16
 *MgO            4.667-14 5.590-13 5.145-12 3.785-11 4.293-20 3.748-19 2.804-18 1.826-17
 MgOH            5.577-10 3.307 -9 1.618 -8 6.722 -8 2.534-14 1.218-13 5.226-13 2.024-12
 Mg(OH)2         1.888-11 1.272-10 6.906-10 3.188 -9 3.279-16 1.968-15 1.016-14 4.591-14
 MgS             6.268-10 3.727 -9 1.832 -8 7.663 -8 2.718-14 1.299-13 5.543-13 2.138-12
 Mg2             7.294-12 6.278-11 4.348-10 2.402 -9 6.756-17 3.694-16 1.857-15 8.620-15
 *N              1.636-16 2.049-15 1.937-14 1.383-13 7.221-23 7.760-22 6.816-21 5.013-20
 *NH             1.584-13 1.227-12 7.538-12 3.650-11 1.052-18 7.469-18 4.462-17 2.291-16
 NH2             1.003 -9 3.934 -9 1.314 -8 3.678 -8 3.082-13 1.210-12 4.167-12 1.281-11
 NH3             1.0066-4 1.5379-4 2.2100-4 2.8966-4 6.1521-6 1.0607-5 1.7022-5 2.5703-5
 NH2OH           3.061-17 2.667-16 1.801-15 9.604-15 8.745-23 7.699-22 5.498-21 3.272-20
 *NO             4.499-17 6.895-16 7.687-15 6.418-14 4.384-24 6.392-23 7.283-22 6.690-21
 *N2             2.025 -6 7.349 -6 2.250 -5 5.505 -5 5.007-10 2.187 -9 8.056 -9 2.564 -8
 N2H2            1.311-15 1.086-14 6.985-14 3.347-13 4.083-21 3.610-20 2.561-19 1.503-18
 N2H4            8.755-15 4.494-14 1.882-13 6.120-13 4.320-19 2.528-18 1.222-17 5.016-17
 *O              4.097-18 6.262-17 7.090-16 6.354-15 6.893-25 8.383-24 8.342-23 6.952-22
 *OH             1.826-12 1.177-11 6.154-11 2.747-10 3.812-17 2.198-16 1.093-15 4.774-15
 *S              3.456-12 2.134-11 1.072-10 4.614-10 8.516-17 4.736-16 2.277-15 9.636-15
 SCL             1.362-17 7.475-17 3.351-16 1.292-15 6.216-22 3.219-21 1.439-20 5.659-20
 SH              1.344 -8 4.776 -8 1.461 -7 4.023 -7 7.479-12 2.577-11 7.940-11 2.219-10
 SN              2.094-15 2.338-14 1.959-13 1.262-12 1.151-21 1.280-20 1.135-19 8.243-19
 SO              2.909-16 3.391-15 2.964-14 2.117-13 1.441-22 1.584-21 1.402-20 1.026-19
 S2              2.835-13 1.957-12 1.068-11 4.987-11 2.502-18 1.751-17 1.019-16 5.043-16
 *Si             1.679-11 1.314-10 8.432-10 4.382 -9 3.046-16 1.478-15 6.674-15 2.815-14
 SiBr            2.023-13 6.172-13 1.696-12 4.078-12 6.919-16 1.492-15 3.171-15 6.622-15
 SiCL            3.849-11 1.284-10 3.810-10 9.815-10 7.556-14 1.799-13 4.168-13 9.397-13
 SiCL2           4.495-12 6.556-12 9.222-12 1.205-11 8.409-13 1.001-12 1.210-12 1.483-12
 SiF             7.314-13 2.746-12 8.968-12 2.549-11 4.042-16 1.290-15 3.767-15 1.019-14
 SiFCL           4.516-12 6.155-12 8.066-12 1.001-11 6.674-13 9.054-13 1.187-12 1.516-12
 SiF2            1.146-12 1.461-12 1.784-12 2.105-12 1.333-13 2.062-13 2.931-13 3.907-13
 SiF4            3.113-17 7.484-18 1.995-18 6.073-19 1.121-14 6.153-15 3.047-15 1.414-15
 SiH             2.089 -9 1.169 -8 5.556 -8 2.203 -7 2.580-13 9.358-13 3.226-12 1.058-11
 SiHCL           1.061 -9 2.494 -9 5.415 -9 1.053 -8 1.554-11 2.723-11 4.746-11 8.212-11
 SiHCL3          1.942-14 1.151-14 7.215-15 4.539-15 5.895-13 3.243-13 1.905-13 1.189-13
 SiHF            6.600-10 1.450 -9 2.941 -9 5.460 -9 7.865-12 1.560-11 2.930-11 5.262-11
 SiHF3           1.698-13 6.465-14 2.643-14 1.175-14 9.564-12 6.321-12 3.898-12 2.303-12
 SiH2            6.111 -8 2.358 -7 8.051 -7 2.376 -6 6.556-11 1.705-10 4.319-10 1.064 -9
 SiH2CL2         1.106-10 8.892-11 7.366-11 5.999-11 6.839-10 4.767-10 3.512-10 2.717-10
 SiH2F2          4.656-10 2.778-10 1.727-10 1.113-10 4.408 -9 3.465 -9 2.631 -9 1.959 -9
 SiH3            2.9161-7 8.5704-7 2.2934-6 5.4319-6 1.5118-9 3.0985-9 6.2939-9 1.2625-8
 SiH3Br          1.348-10 1.532-10 1.746-10 1.909-10 1.427-10 1.280-10 1.207-10 1.184-10
 SiH3CL          1.9133-7 2.1137-7 2.3441-7 2.4991-7 2.2305-7 1.9934-7 1.8621-7 1.8052-7
 SiH3F           3.7679-7 3.5922-7 3.4558-7 3.2821-7 5.3900-7 5.1220-7 4.8636-7 4.6311-7
 SiH4            1.2149-4 1.8354-4 2.7120-4 3.7695-4 2.7522-5 3.1388-5 3.7015-5 4.4779-5
 SiN             1.076-13 1.361-12 1.320-11 9.413-11 8.353-20 7.292-19 5.506-18 3.647-17
 SiO             1.354 -7 6.750 -7 2.852 -6 1.025 -5 2.011-11 7.492-11 2.588-10 8.338-10
 SiO2            1.053-14 1.260-13 1.151-12 8.355-12 8.709-21 7.818-20 5.981-19 3.966-18
 SiS             7.494 -7 3.063 -6 1.081 -5 3.296 -5 3.251-10 1.025 -9 3.033 -9 8.453 -9
 SiS2            1.675-10 9.652-10 4.567 -9 1.828 -8 7.438-15 3.583-14 1.536-13 5.933-13
 Si2             1.840-14 3.131-13 4.093-12 3.933-11 8.202-21 6.345-20 4.605-19 3.129-18
 Si2N            7.309-14 1.187-12 1.466-11 1.266-10 2.574-20 2.264-19 1.794-18 1.287-17
 Si3             3.493-16 9.590-15 1.959-13 2.743-12 2.030-23 1.922-22 1.754-21 1.529-20
 MgO(cr)         1.0047-4 1.2901-4 1.6618-4 2.2106-4 7.4801-5 7.4339-5 7.3987-5 7.4069-5
 MgS(cr)         2.9380-4 2.6087-4 2.0617-4 1.1283-4 3.3010-4 3.2932-4 3.2802-4 3.2597-4
 Mg2SiO4(cr)     1.5130-4 1.4945-4 1.4735-4 1.4096-4 1.4773-4 1.4837-4 1.4921-4 1.5018-4
 Si2N2O(cr)      1.4747-4 1.1560-4 6.6867-5 0.0000 0 1.9671-4 1.9449-4 1.9127-4 1.8692-4

  * THERMODYNAMIC PROPERTIES FITTED TO 20000.K

    PRODUCTS WHICH WERE CONSIDERED BUT WHOSE MOLE FRACTIONS
    WERE LESS THAN 1.000000E-15 FOR ALL ASSIGNED CONDITIONS

 BrCL            BrF             BrF3            BrF5            BrO            
 OBrO            BrOO            BrO3            Br2             BrBrO          
 BrOBr           CLF             CLF3            CLF5            CLO            
 CLO2            CL2             CL2O            FO              FO2,FOO        
 FO2,OFO         F2              F2O             F2O2            FS2F           
 HNO2            HNO3            HOCL            HOF             HO2            
 HSO3F           H2O2            H2SO4           H3F3            H4F4           
 H5F5            H6F6            H7F7            Mg2F4           NF             
 NF2             NF3             NHF             NHF2            NH2F           
 NOCL            NOF             NOF3            NO2             NO2CL          
 NO2F            NO3             NO3F            N2F2            N2F4           
 NH2NO2          N2O             N2O3            N2O4            N2O5           
 N3              N3H             *O2             O3              SCL2           
 SF              SF2             SF3             SF4             SF5            
 SF6             SOF2            SO2             SO2CL2          SO2FCL         
 SO2F2           SO3             S2CL2           S2F2            S2O            
 S3              S4              S5              S6              S7             
 S8              SiBr2           SiBr3           SiBr4           SiCL3          
 SiCL4           SiF3            SiHBr3          SiH2Br2         Si2F6          
 Br2(cr)         Br2(L)          H2O(cr)         H2O(L)          H2SO4(L)       
 Mg(cr)          Mg(L)           MgBr2(cr)       MgBr2(L)        MgCL2(cr)      
 MgCL2(L)        MgF2(cr)        MgF2(L)         MgH2(b)         MgH2(L)        
 MgO(L)          Mg(OH)2(cr)     Mg(OH)2(L)      MgS(L)          MgSO4(II)      
 MgSO4(I)        MgSO4(L)        MgSiO3(I)       MgSiO3(II)      MgSiO3(III)    
 MgSiO3(L)       Mg2SiO4(L)      Mg3N2(cr)       NH4CL(II)       NH4CL(III)     
 NH4F(cr)        NH4F(L)         S(a)            S(b)            S(L)           
 SCL2(L)         S2CL2(L)        Si(cr)          Si(L)           SiO2(a-qz)     
 SiO2(b-qz)      SiO2(b-crt)     SiO2(L)         SiS(cr)         SiS(L)         
 SiS2(cr)        SiS2(L)         Si3N4(cr)      






 POINT ITN      T            H           HE          N           S 
                    O           F           MG          SI          CL
                    BR
   1    4    1500.000      -5.419     -11.448     -17.283     -23.228
                 -40.340     -47.847     -15.597      -8.156     -31.664
                 -35.385
   2    4    1600.000      -5.514     -11.579     -16.490     -22.376
                 -38.193     -46.416     -15.038      -8.003     -31.296
                 -35.310
   3    4    1700.000      -5.605     -11.703     -15.836     -21.662
                 -36.335     -45.203     -14.532      -7.831     -30.986
                 -35.255
   4    4    1800.000      -5.692     -11.821     -15.286     -21.056
                 -34.708     -44.156     -14.079      -7.661     -30.722
                 -35.216
   5    4    1900.000      -5.777     -11.935     -14.817     -20.537
                 -33.273     -43.242     -13.672      -7.499     -30.500
                 -35.193
   6    3    2000.000      -5.858     -12.043     -14.413     -20.087
                 -31.998     -42.439     -13.308      -7.349     -30.315
                 -35.185
 REMOVE  Si2N2O(cr)     
   6    2    2000.000      -5.858     -12.043     -14.508     -20.050
                 -31.960     -42.399     -13.345      -7.423     -30.310
                 -35.182

 SINGULAR MATRIX, ITERATION  1  VARIABLE 10(EQLBRM)
   7   19    1300.000      -5.151     -11.038     -19.476     -25.519
                 -45.810     -51.723     -16.889      -8.320     -32.579
                 -35.549
   8    3    1350.000      -5.204     -11.111     -18.803     -24.836
                 -44.245     -50.573     -16.563      -8.346     -32.295
                 -35.480




               THERMODYNAMIC EQUILIBRIUM PROPERTIES AT ASSIGNED

                           TEMPERATURE AND PRESSURE

 CASE = saturn         

             REACTANT                       MOLES         ENERGY      TEMP
                                                         KJ/KG-MOL      K
 NAME        H2                           1.0000000         0.000      0.000
 NAME        He                           0.1350000         0.000      0.000
 NAME        N2                           0.0002270         0.000      0.000
 NAME        H2S                          0.0003760         0.000      0.000
 NAME        O2                           0.0004900         0.000      0.000
 NAME        HF                           0.0000007         0.000      0.000
 NAME        Mg                           0.0007960         0.000      0.000
 NAME        Si                           0.0006470         0.000      0.000
 NAME        HCL                          0.0000063         0.000      0.000
 NAME        HBr                          0.0000000         0.000      0.000

 O/F=    0.00000  %FUEL=  0.000000  R,EQ.RATIO=*********  PHI,EQ.RATIO= 0.000000

 THERMODYNAMIC PROPERTIES

 P, BAR           2669.30  2669.30  2669.30  2669.30  2669.30  2669.30  3037.79  3037.79
 T, K             1500.00  1600.00  1700.00  1800.00  1900.00  2000.00  1300.00  1350.00
 RHO, KG/CU M    4.9559 1 4.6464 1 4.3733 1 4.1307 1 3.9137 1 3.7181 1 6.5075 1 6.2665 1
 H, KJ/KG         14841.9  16193.4  17563.7  18953.9  20366.9  21804.4  12193.4  12848.8
 U, KJ/KG         9455.81  10448.5  11460.2  12491.9  13546.4  14625.2  7525.22  8001.19
 G, KJ/KG        -59118.6 -64093.3 -69153.1 -74294.1 -79512.9 -84806.9 -48839.3 -51199.2
 S, KJ/(KG)(K)    49.3070  50.1792  51.0099  51.8044  52.5683  53.3056  46.9482  47.4430

 M, (1/n)           2.316    2.316    2.316    2.316    2.316    2.316    2.315    2.315
 MW, MOL WT         2.314    2.314    2.314    2.314    2.315    2.315    2.314    2.314
 (dLV/dLP)t      -1.00004 -1.00008 -1.00013 -1.00021 -1.00033 -1.00039 -1.00001 -1.00002
 (dLV/dLT)p        0.9995   0.9991   0.9988   0.9984   0.9984   1.0017   0.9999   0.9998
 Cp, KJ/(KG)(K)   13.4238  13.6081  13.7995  14.0089  14.2591  14.4249  13.0652  13.1541
 GAMMAs            1.3646   1.3575   1.3503   1.3427   1.3344   1.3321   1.3788   1.3752
 SON VEL,M/SEC     2711.0   2792.6   2870.8   2945.7   3016.9   3092.5   2537.1   2582.0

 MOLE FRACTIONS

 *Br             2.226-13 4.825-13 9.559-13 1.756-12 3.020-12 4.916-12 3.111-14 5.278-14
 *CL             1.519-12 4.632-12 1.234-11 2.934-11 6.334-11 1.262-10 8.846-14 1.928-13
 *F              1.810-18 1.290-17 7.008-17 3.084-16 1.143-15 3.818-15 9.247-21 4.137-20
 *H              3.1992-7 9.8822-7 2.6784-6 6.5087-6 1.4425-5 2.9559-5 1.8843-8 4.0595-8
 HBr             5.9761-9 5.9612-9 5.9341-9 5.8917-9 5.8280-9 5.7462-9 5.9513-9 5.9667-9
 HCL             5.1948-6 5.2293-6 5.2289-6 5.1992-6 5.1377-6 5.0633-6 4.9054-6 5.0248-6
 *HF             1.9287-7 2.2541-7 2.4800-7 2.6338-7 2.7310-7 2.8968-7 8.9105-8 1.1627-7
 *H2             8.8034-1 8.8027-1 8.8017-1 8.8000-1 8.7977-1 8.7945-1 8.8039-1 8.8038-1
 H2F2            2.950-14 3.721-14 4.211-14 4.486-14 4.595-14 4.958-14 8.831-15 1.416-14
 H2O             1.5207-6 4.1281-6 9.6760-6 2.0238-5 3.8614-5 7.0916-5 1.1131-7 2.4004-7
 H2S             8.0107-6 1.8476-5 3.7483-5 6.8901-5 1.1701-4 1.9331-4 8.7501-7 1.6883-6
 *He             1.1882-1 1.1883-1 1.1884-1 1.1886-1 1.1888-1 1.1889-1 1.1882-1 1.1882-1
 *Mg             2.1186-7 8.8204-7 3.1727-6 1.0023-5 2.8278-5 6.9654-5 6.2871-9 1.5515-8
 MgBr            3.842-12 9.449-12 2.130-11 4.424-11 8.538-11 1.487-10 4.391-13 7.599-13
 MgBr2           6.499-13 4.172-13 2.874-13 2.080-13 1.558-13 1.155-13 2.161-12 1.493-12
 MgCL            5.010 -9 1.215 -8 2.698 -8 5.518 -8 1.048 -7 1.799 -7 5.745-10 9.997-10
 MgCL2           9.1150-8 6.5958-8 5.0179-8 3.9478-8 3.1727-8 2.5084-8 2.1274-7 1.6428-7
 MgF             1.435-10 4.121-10 1.025 -9 2.275 -9 4.600 -9 8.624 -9 7.699-12 1.727-11
 MgF2            1.694-11 1.890-11 1.963-11 1.963-11 1.915-11 1.918-11 6.841-12 9.375-12
 MgH             8.200-10 5.131 -9 2.645 -8 1.151 -7 4.327 -7 1.380 -6 9.539-12 3.108-11
 MgN             3.089-15 6.380-14 9.074-13 9.498-12 7.697-11 4.398-10 1.441-18 1.197-17
 *MgO            1.049-16 2.496-15 4.085-14 4.893-13 4.504-12 3.313-11 3.772-20 3.293-19
 MgOH            7.148-12 7.005-11 5.218-10 3.094 -9 1.513 -8 6.289 -8 2.376-14 1.142-13
 Mg(OH)2         1.846-13 2.225-12 1.943-11 1.307-10 7.093-10 3.334 -9 3.453-16 2.061-15
 MgS             7.532-12 7.361-11 5.486-10 3.262 -9 1.604 -8 6.708 -8 2.388-14 1.141-13
 Mg2             3.701-14 5.440-13 6.030-12 5.202-11 3.608-10 1.921 -9 5.354-17 2.959-16
 *N              3.159-19 8.493-18 1.494-16 1.869-15 1.765-14 1.196-13 6.856-23 7.309-22
 *NH             1.032-15 1.508-14 1.547-13 1.197-12 7.341-12 3.373-11 1.066-18 7.504-18
 NH2             3.575-11 2.194-10 1.047 -9 4.099 -9 1.368 -8 3.633 -8 3.330-13 1.297-12
 NH3             3.6925-5 6.8033-5 1.1230-4 1.7128-4 2.4588-4 3.0577-4 7.0914-6 1.2128-5
 NH2OH           1.667-19 2.957-18 3.514-17 3.054-16 2.058-15 1.061-14 1.061-22 9.220-22
 *NO             5.104-20 1.878-18 4.230-17 6.464-16 7.194-15 5.804-14 4.383-24 6.304-23
 *N2             7.224 -8 4.311 -7 1.932 -6 6.986 -6 2.134 -5 4.701 -5 5.137-10 2.208 -9
 N2H2            7.502-18 1.267-16 1.429-15 1.179-14 7.569-14 3.265-13 4.767-21 4.147-20
 N2H4            1.793-16 1.652-15 1.090-14 5.575-14 2.330-13 6.819-13 5.740-19 3.305-18
 *O              4.953-21 1.686-19 3.691-18 5.634-17 6.374-16 5.818-15 6.378-25 7.714-24
 *OH             1.860-14 2.116-13 1.757-12 1.132-11 5.913-11 2.688-10 3.763-17 2.158-16
 *S              3.645-14 3.931-13 3.113-12 1.920-11 9.638-11 4.224-10 7.879-17 4.358-16
 SCL             1.993-19 1.877-18 1.310-17 7.177-17 3.217-16 1.268-15 6.152-22 3.164-21
 SH              5.699-10 3.043 -9 1.294 -8 4.593 -8 1.404 -7 3.937 -7 7.382-12 2.530-11
 SN              5.049-18 1.246-16 1.969-15 2.192-14 1.833-13 1.141-12 1.150-21 1.263-20
 SO              6.374-19 1.633-17 2.696-16 3.136-15 2.738-14 2.028-13 1.404-22 1.527-21
 S2              2.173-15 2.866-14 2.628-13 1.810-12 9.867-12 4.776-11 2.437-18 1.688-17
 *Si             1.109-13 1.409-12 1.388-11 1.089-10 6.996-10 3.505 -9 2.414-16 1.184-15
 SiBr            1.352-14 5.208-14 1.785-13 5.459-13 1.503-12 3.493-12 5.846-16 1.274-15
 SiCL            2.057-12 8.937-12 3.396-11 1.135-10 3.375-10 8.413-10 6.406-14 1.540-13
 SiCL2           1.832-12 2.807-12 4.231-12 6.185-12 8.721-12 1.107-11 7.626-13 9.151-13
 SiF             2.580-14 1.392-13 6.176-13 2.327-12 7.620-12 2.137-11 3.342-16 1.070-15
 SiFCL           1.900-12 2.851-12 4.069-12 5.565-12 7.317-12 8.992-12 5.905-13 8.024-13
 SiF2            4.969-13 7.304-13 9.885-13 1.266-12 1.553-12 1.849-12 1.150-13 1.771-13
 SiF4            6.363-16 1.287-16 2.803-17 6.782-18 1.821-18 5.854-19 1.053-14 5.669-15
 SiH             3.295-11 2.731-10 1.846 -9 1.035 -8 4.927 -8 1.883 -7 2.182-13 7.997-13
 SiHCL           1.404-10 3.903-10 1.000 -9 2.356 -9 5.127 -9 9.651 -9 1.405-11 2.486-11
 SiHCL3          7.811-14 3.805-14 2.085-14 1.239-14 7.785-15 4.774-15 6.102-13 3.379-13
 SiHF            9.090-11 2.460-10 5.957-10 1.313 -9 2.671 -9 4.891 -9 6.939-12 1.380-11
 SiHF3           1.335-12 4.496-13 1.599-13 6.123-14 2.517-14 1.155-14 9.188-12 5.999-12
 SiH2            2.540 -9 1.302 -8 5.771 -8 2.232 -7 7.631 -7 2.171 -6 5.913-11 1.554-10
 SiH2CL2         2.189-10 1.551-10 1.190-10 9.584-11 7.957-11 6.294-11 7.059-10 4.960-10
 SiH2F2          1.449 -9 8.003-10 4.588-10 2.750-10 1.717-10 1.117-10 4.329 -9 3.387 -9
 SiH3            2.4880-8 9.0145-8 2.9435-7 8.6702-7 2.3233-6 5.3056-6 1.4545-9 3.0135-9
 SiH3Br          1.197-10 1.294-10 1.452-10 1.654-10 1.889-10 1.996-10 1.463-10 1.327-10
 SiH3CL          1.8002-7 1.8898-7 2.0609-7 2.2819-7 2.5352-7 2.6155-7 2.2957-7 2.0711-7
 SiH3F           4.4298-7 4.1135-7 3.8853-7 3.7163-7 3.5852-7 3.3587-7 5.4115-7 5.1587-7
 SiH4            5.5073-5 8.5038-5 1.3107-4 1.9845-4 2.9365-4 3.9353-4 2.8249-5 3.2566-5
 SiN             2.142-16 5.368-15 9.287-14 1.175-12 1.140-11 7.437-11 7.152-20 6.261-19
 SiO             2.514 -9 1.902 -8 1.152 -7 5.749 -7 2.430 -6 8.573 -6 1.679-11 6.286-11
 SiO2            2.311-17 5.596-16 9.221-15 1.103-13 1.007-12 7.313-12 7.653-21 6.870-20
 SiS             2.225 -8 1.313 -7 6.375 -7 2.609 -6 9.212 -6 2.758 -5 2.713-10 8.602-10
 SiS2            2.085-12 2.012-11 1.466-10 8.448-10 3.998 -9 1.600 -8 6.535-15 3.149-14
 Si2             1.978-17 6.247-16 1.437-14 2.455-13 3.219-12 2.875-11 5.862-21 4.634-20
 Si2N            8.371-17 2.666-15 5.956-14 9.702-13 1.200-11 9.139-11 1.988-20 1.772-19
 Si3             1.254-19 6.716-18 2.575-16 7.119-15 1.460-13 1.832-12 1.309-23 1.280-22
 MgO(cr)         7.5013-5 8.1569-5 9.8008-5 1.2742-4 1.6838-4 2.5628-4 7.4448-5 7.3763-5
 MgS(cr)         3.2291-4 3.1236-4 2.9286-4 2.5948-4 2.0470-4 1.0974-4 3.3005-4 3.2924-4
 Mg2SiO4(cr)     1.5119-4 1.5289-4 1.5329-4 1.5184-4 1.4948-4 1.3180-4 1.4793-4 1.4870-4
 Si2N2O(cr)      1.8127-4 1.6537-4 1.4175-4 1.0723-4 5.5597-5 0.0000 0 1.9624-4 1.9373-4

  * THERMODYNAMIC PROPERTIES FITTED TO 20000.K

    PRODUCTS WHICH WERE CONSIDERED BUT WHOSE MOLE FRACTIONS
    WERE LESS THAN 1.000000E-15 FOR ALL ASSIGNED CONDITIONS

 BrCL            BrF             BrF3            BrF5            BrO            
 OBrO            BrOO            BrO3            Br2             BrBrO          
 BrOBr           CLF             CLF3            CLF5            CLO            
 CLO2            CL2             CL2O            FO              FO2,FOO        
 FO2,OFO         F2              F2O             F2O2            FS2F           
 HNO             HNO2            HNO3            HOCL            HOF            
 HO2             HSO3F           H2O2            H2SO4           H3F3           
 H4F4            H5F5            H6F6            H7F7            Mg2F4          
 NF              NF2             NF3             NHF             NHF2           
 NH2F            NOCL            NOF             NOF3            NO2            
 NO2CL           NO2F            NO3             NO3F            N2F2           
 N2F4            NH2NO2          N2O             N2O3            N2O4           
 N2O5            N3              N3H             *O2             O3             
 SCL2            SF              SF2             SF3             SF4            
 SF5             SF6             SOF2            SO2             SO2CL2         
 SO2FCL          SO2F2           SO3             S2CL2           S2F2           
 S2O             S3              S4              S5              S6             
 S7              S8              SiBr2           SiBr3           SiBr4          
 SiCL3           SiCL4           SiF3            SiHBr3          SiH2Br2        
 Si2F6           Br2(cr)         Br2(L)          H2O(cr)         H2O(L)         
 H2SO4(L)        Mg(cr)          Mg(L)           MgBr2(cr)       MgBr2(L)       
 MgCL2(cr)       MgCL2(L)        MgF2(cr)        MgF2(L)         MgH2(b)        
 MgH2(L)         MgO(L)          Mg(OH)2(cr)     Mg(OH)2(L)      MgS(L)         
 MgSO4(II)       MgSO4(I)        MgSO4(L)        MgSiO3(I)       MgSiO3(II)     
 MgSiO3(III)     MgSiO3(L)       Mg2SiO4(L)      Mg3N2(cr)       NH4CL(II)      
 NH4CL(III)      NH4F(cr)        NH4F(L)         S(a)            S(b)           
 S(L)            SCL2(L)         S2CL2(L)        Si(cr)          Si(L)          
 SiO2(a-qz)      SiO2(b-qz)      SiO2(b-crt)     SiO2(L)         SiS(cr)        
 SiS(L)          SiS2(cr)        SiS2(L)         Si3N4(cr)      






 POINT ITN      T            H           HE          N           S 
                    O           F           MG          SI          CL
                    BR
   1    3    1400.000      -5.255     -11.182     -18.213     -24.227
                 -42.817     -49.555     -16.243      -8.332     -32.040
                 -35.420
   2    4    1450.000      -5.305     -11.252     -17.693     -23.683
                 -41.510     -48.645     -15.931      -8.288     -31.810
                 -35.367
   3    4    1500.000      -5.354     -11.319     -17.232     -23.194
                 -40.307     -47.826     -15.630      -8.223     -31.600
                 -35.321
   4    4    1600.000      -5.449     -11.449     -16.446     -22.346
                 -38.164     -46.397     -15.067      -8.061     -31.233
                 -35.247
   5    4    1700.000      -5.540     -11.574     -15.795     -21.635
                 -36.307     -45.184     -14.560      -7.886     -30.923
                 -35.192
   6    4    1800.000      -5.628     -11.692     -15.247     -21.030
                 -34.682     -44.136     -14.105      -7.714     -30.660
                 -35.153
   7    4    1900.000      -5.712     -11.805     -14.778     -20.510
                 -33.247     -43.220     -13.698      -7.552     -30.437
                 -35.129
   8    3    2000.000      -5.793     -11.914     -14.374     -20.061
                 -31.972     -42.416     -13.334      -7.400     -30.251
                 -35.121
 REMOVE  Si2N2O(cr)     
   8    2    2000.000      -5.793     -11.914     -14.527     -20.004
                 -31.915     -42.352     -13.391      -7.515     -30.243
                 -35.115




               THERMODYNAMIC EQUILIBRIUM PROPERTIES AT ASSIGNED

                           TEMPERATURE AND PRESSURE

 CASE = saturn         

             REACTANT                       MOLES         ENERGY      TEMP
                                                         KJ/KG-MOL      K
 NAME        H2                           1.0000000         0.000      0.000
 NAME        He                           0.1350000         0.000      0.000
 NAME        N2                           0.0002270         0.000      0.000
 NAME        H2S                          0.0003760         0.000      0.000
 NAME        O2                           0.0004900         0.000      0.000
 NAME        HF                           0.0000007         0.000      0.000
 NAME        Mg                           0.0007960         0.000      0.000
 NAME        Si                           0.0006470         0.000      0.000
 NAME        HCL                          0.0000063         0.000      0.000
 NAME        HBr                          0.0000000         0.000      0.000

 O/F=    0.00000  %FUEL=  0.000000  R,EQ.RATIO=*********  PHI,EQ.RATIO= 0.000000

 THERMODYNAMIC PROPERTIES

 P, BAR           3037.79  3037.79  3037.79  3037.79  3037.79  3037.79  3037.79  3037.79
 T, K             1400.00  1450.00  1500.00  1600.00  1700.00  1800.00  1900.00  2000.00
 RHO, KG/CU M    6.0428 1 5.8345 1 5.6401 1 5.2879 1 4.9772 1 4.7011 1 4.4541 1 4.2316 1
 H, KJ/KG         13508.8  14173.3  14842.3  16194.1  17564.8  18955.3  20368.4  21803.0
 U, KJ/KG         8481.65  8966.65  9456.23  10449.3  11461.3  12493.4  13548.2  14624.1
 G, KJ/KG        -53583.4 -55991.3 -58422.1 -63350.4 -68363.8 -73458.4 -78631.0 -83878.5
 S, KJ/(KG)(K)    47.9230  48.3893  48.8429  49.7153  50.5462  51.3410  52.1049  52.8408

 M, (1/n)           2.315    2.316    2.316    2.316    2.316    2.316    2.316    2.316
 MW, MOL WT         2.314    2.314    2.314    2.314    2.314    2.315    2.315    2.315
 (dLV/dLP)t      -1.00002 -1.00003 -1.00005 -1.00008 -1.00014 -1.00022 -1.00035 -1.00035
 (dLV/dLT)p        0.9997   0.9996   0.9994   0.9991   0.9986   0.9982   0.9980   1.0012
 Cp, KJ/(KG)(K)   13.2441  13.3348  13.4261  13.6113  13.8035  14.0122  14.2582  14.4120
 GAMMAs            1.3716   1.3680   1.3644   1.3572   1.3500   1.3424   1.3341   1.3321
 SON VEL,M/SEC     2625.9   2668.8   2710.9   2792.3   2870.5   2945.2   3016.4   3092.5

 MOLE FRACTIONS

 *Br             8.620-14 1.361-13 2.084-13 4.517-13 8.948-13 1.643-12 2.828-12 4.617-12
 *CL             3.950-13 7.673-13 1.423-12 4.335-12 1.154-11 2.745-11 5.928-11 1.186-10
 *F              1.588-19 5.359-19 1.625-18 1.155-17 6.275-17 2.764-16 1.026-15 3.515-15
 *H              8.2858-8 1.6111-7 2.9989-7 9.2634-7 2.5107-6 6.1011-6 1.3522-5 2.7707-5
 HBr             5.9731-9 5.9745-9 5.9690-9 5.9529-9 5.9251-9 5.8830-9 5.8210-9 5.7574-9
 HCL             5.1043-6 5.1566-6 5.1903-6 5.2212-6 5.2190-6 5.1892-6 5.1295-6 5.0743-6
 *HF             1.4204-7 1.6496-7 1.8465-7 2.1528-7 2.3688-7 2.5187-7 2.6158-7 2.8453-7
 *H2             8.8037-1 8.8035-1 8.8033-1 8.8026-1 8.8015-1 8.7998-1 8.7972-1 8.7941-1
 H2F2            2.002-14 2.570-14 3.077-14 3.862-14 4.373-14 4.669-14 4.797-14 5.444-14
 H2O             4.7871-7 8.9270-7 1.5725-6 4.2509-6 9.9437-6 2.0780-5 3.9633-5 7.4234-5
 H2S             3.0369-6 5.1442-6 8.2840-6 1.9026-5 3.8520-5 7.0746-5 1.2010-4 2.0236-4
 *He             1.1882-1 1.1882-1 1.1883-1 1.1883-1 1.1885-1 1.1886-1 1.1888-1 1.1889-1
 *Mg             3.6632-8 8.2910-8 1.8002-7 7.5264-7 2.7128-6 8.5772-6 2.4208-5 5.8465-5
 MgBr            1.289-12 2.141-12 3.479-12 8.589-12 1.940-11 4.033-11 7.788-11 1.334-10
 MgBr2           1.079-12 8.099-13 6.269-13 4.040-13 2.789-13 2.020-13 1.514-13 1.107-13
 MgCL            1.6952-9 2.8064-9 4.5371-9 1.1047-8 2.4564-8 5.0275-8 9.5513-8 1.6145-7
 MgCL2           1.3028-7 1.0592-7 8.7989-8 6.3853-8 4.8644-8 3.8300-8 3.0813-8 2.4066-8
 MgF             3.563-11 6.855-11 1.245-10 3.583-10 8.926-10 1.986 -9 4.024 -9 7.585 -9
 MgF2            1.169-11 1.358-11 1.502-11 1.674-11 1.743-11 1.748-11 1.712-11 1.767-11
 MgH             9.500-11 2.735-10 7.433-10 4.670 -9 2.413 -8 1.051 -7 3.951 -7 1.236 -6
 MgN             8.441-17 5.148-16 2.760-15 5.689-14 8.083-13 8.457-12 6.852-11 3.624-10
 *MgO            2.463-18 1.604-17 9.220-17 2.193-15 3.590-14 4.300-13 3.958-12 2.911-11
 MgOH            4.899-13 1.897-12 6.700-12 6.566-11 4.891-10 2.900 -9 1.419 -8 5.895 -8
 Mg(OH)2         1.059-14 4.763-14 1.909-13 2.291-12 1.996-11 1.342-10 7.280-10 3.490 -9
 MgS             4.871-13 1.879-12 6.618-12 6.468-11 4.821-10 2.867 -9 1.409 -8 5.894 -8
 Mg2             1.503-15 7.036-15 3.041-14 4.508-13 5.017-12 4.335-11 3.009-10 1.540 -9
 *N              6.371-21 4.656-20 2.919-19 7.799-18 1.368-16 1.709-15 1.613-14 1.032-13
 *NH             4.449-17 2.270-16 1.017-15 1.477-14 1.511-13 1.167-12 7.156-12 3.103-11
 NH2             4.432-12 1.354-11 3.760-11 2.292-10 1.090 -9 4.265 -9 1.422 -8 3.566 -8
 NH3             1.9314-5 2.8978-5 4.1424-5 7.5841-5 1.2481-4 1.9011-4 2.7275-4 3.2019-4
 NH2OH           6.500-21 3.828-20 1.934-19 3.394-18 4.014-17 3.480-16 2.343-15 1.163-14
 *NO             7.092-22 6.446-21 4.878-20 1.776-18 3.980-17 6.069-16 6.748-15 5.241-14
 *N2             8.0089-9 2.5163-8 7.0195-8 4.1366-7 1.8421-6 6.6454-6 2.0284-5 3.9801-5
 N2H2            2.898-19 1.678-18 8.296-18 1.384-16 1.551-15 1.276-14 8.185-14 3.146-13
 N2H4            1.574-17 6.376-17 2.257-16 2.054-15 1.346-14 6.868-14 2.867-13 7.478-13
 *O              7.638-23 6.338-22 4.501-21 1.526-19 3.333-18 5.083-17 5.749-16 5.351-15
 *OH             1.068-15 4.643-15 1.803-14 2.043-13 1.693-12 1.090-11 5.690-11 2.638-10
 *S              2.085-15 8.785-15 3.312-14 3.557-13 2.811-12 1.733-11 8.693-11 3.886-10
 SCL             1.406-20 5.502-20 1.931-19 1.809-18 1.259-17 6.895-17 3.090-16 1.247-15
 SH              7.756-11 2.158-10 5.524-10 2.937 -9 1.247 -8 4.421 -8 1.351 -7 3.864 -7
 SN              1.105-19 7.942-19 4.825-18 1.178-16 1.853-15 2.057-14 1.719-13 1.031-12
 SO              1.338-20 9.709-20 5.989-19 1.522-17 2.502-16 2.905-15 2.534-14 1.953-13
 S2              9.719-17 4.770-16 2.042-15 2.670-14 2.439-13 1.677-12 9.135-12 4.599-11
 *Si             5.401-15 2.298-14 9.116-14 1.167-12 1.155-11 9.072-11 5.834-10 2.810 -9
 SiBr            2.735-15 5.760-15 1.184-14 4.597-14 1.582-13 4.846-13 1.335-12 2.994-12
 SiCL            3.600-13 8.179-13 1.801-12 7.888-12 3.008-11 1.007-10 2.998-10 7.212-10
 SiCL2           1.115-12 1.376-12 1.710-12 2.639-12 3.991-12 5.844-12 8.251-12 1.015-11
 SiF             3.137-15 8.522-15 2.165-14 1.175-13 5.236-13 1.978-12 6.493-12 1.795-11
 SiFCL           1.055-12 1.352-12 1.700-12 2.564-12 3.673-12 5.038-12 6.641-12 8.077-12
 SiF2            2.511-13 3.346-13 4.258-13 6.283-13 8.539-13 1.098-12 1.352-12 1.628-12
 SiF4            2.765-15 1.271-15 5.689-16 1.149-16 2.514-17 6.122-18 1.655-18 5.659-19
 SiH             2.785-12 9.211-12 2.888-11 2.414-10 1.638 -9 9.205 -9 4.384 -8 1.611 -7
 SiHCL           4.373-11 7.626-11 1.312-10 3.674-10 9.451-10 2.231 -9 4.858 -9 8.825 -9
 SiHCL3          1.999-13 1.255-13 8.290-14 4.065-14 2.234-14 1.330-14 8.369-15 4.991-15
 SiHF            2.603-11 4.693-11 8.138-11 2.215-10 5.387-10 1.191 -9 2.428 -9 4.383 -9
 SiHF3           3.667-12 2.155-12 1.246-12 4.204-13 1.502-13 5.780-14 2.389-14 1.137-14
 SiH2            3.978-10 9.884-10 2.375 -9 1.227 -8 5.465 -8 2.117 -7 7.242 -7 1.981 -6
 SiH2CL2         3.683-10 2.870-10 2.325-10 1.660-10 1.277-10 1.030-10 8.568-11 6.565-11
 SiH2F2          2.565 -9 1.909 -9 1.413 -9 7.834-10 4.511-10 2.714-10 1.701-10 1.119-10
 SiH3            6.1839-9 1.2511-8 2.4819-8 9.0683-8 2.9731-7 8.7721-7 2.3522-6 5.1645-6
 SiH3Br          1.264-10 1.251-10 1.272-10 1.386-10 1.563-10 1.783-10 2.037-10 2.077-10
 SiH3CL          1.9525-7 1.9077-7 1.9141-7 2.0250-7 2.2164-7 2.4582-7 2.7338-7 2.7220-7
 SiH3F           4.9173-7 4.7008-7 4.5131-7 4.2160-7 3.9987-7 3.8358-7 3.7090-7 3.4259-7
 SiH4            3.8797-5 4.7338-5 5.8608-5 9.1258-5 1.4123-4 2.1419-4 3.1715-4 4.0864-4
 SiN             4.740-18 3.146-17 1.851-16 4.648-15 8.050-14 1.019-12 9.890-12 5.854-11
 SiO             2.182-10 7.061-10 2.137 -9 1.623 -8 9.846 -8 4.919 -7 2.080 -6 7.196 -6
 SiO2            5.256-19 3.485-18 2.031-17 4.917-16 8.103-15 9.691-14 8.850-13 6.426-12
 SiS             2.5578-9 7.1587-9 1.8909-8 1.1206-7 5.4508-7 2.2326-6 7.8862-6 2.3152-5
 SiS2            1.350-13 5.213-13 1.832-12 1.768-11 1.288-10 7.424-10 3.513 -9 1.406 -8
 Si2             3.433-19 2.373-18 1.520-17 4.882-16 1.132-14 1.941-13 2.548-12 2.104-11
 Si2N            1.422-18 1.031-17 6.764-17 2.177-15 4.888-14 7.980-13 9.879-12 6.564-11
 Si3             1.204-21 1.077-20 9.010-20 4.949-18 1.921-16 5.337-15 1.097-13 1.223-12
 MgO(cr)         7.3128-5 7.2873-5 7.3429-5 7.9131-5 9.4918-5 1.2467-4 1.6843-4 2.9014-4
 MgS(cr)         3.2790-4 3.2579-4 3.2265-4 3.1183-4 2.9193-4 2.5802-4 2.0297-4 1.0515-4
 Mg2SiO4(cr)     1.4970-4 1.5088-4 1.5214-4 1.5444-4 1.5555-4 1.5469-4 1.5240-4 1.2286-4
 Si2N2O(cr)      1.9013-4 1.8528-4 1.7902-4 1.6148-4 1.3559-4 9.8159-5 4.3230-5 0.0000 0

  * THERMODYNAMIC PROPERTIES FITTED TO 20000.K

    PRODUCTS WHICH WERE CONSIDERED BUT WHOSE MOLE FRACTIONS
    WERE LESS THAN 1.000000E-15 FOR ALL ASSIGNED CONDITIONS

 BrCL            BrF             BrF3            BrF5            BrO            
 OBrO            BrOO            BrO3            Br2             BrBrO          
 BrOBr           CLF             CLF3            CLF5            CLO            
 CLO2            CL2             CL2O            FO              FO2,FOO        
 FO2,OFO         F2              F2O             F2O2            FS2F           
 HNO             HNO2            HNO3            HOCL            HOF            
 HO2             HSO3F           H2O2            H2SO4           H3F3           
 H4F4            H5F5            H6F6            H7F7            Mg2F4          
 NF              NF2             NF3             NHF             NHF2           
 NH2F            NOCL            NOF             NOF3            NO2            
 NO2CL           NO2F            NO3             NO3F            N2F2           
 N2F4            NH2NO2          N2O             N2O3            N2O4           
 N2O5            N3              N3H             *O2             O3             
 SCL2            SF              SF2             SF3             SF4            
 SF5             SF6             SOF2            SO2             SO2CL2         
 SO2FCL          SO2F2           SO3             S2CL2           S2F2           
 S2O             S3              S4              S5              S6             
 S7              S8              SiBr2           SiBr3           SiBr4          
 SiCL3           SiCL4           SiF3            SiHBr3          SiH2Br2        
 Si2F6           Br2(cr)         Br2(L)          H2O(cr)         H2O(L)         
 H2SO4(L)        Mg(cr)          Mg(L)           MgBr2(cr)       MgBr2(L)       
 MgCL2(cr)       MgCL2(L)        MgF2(cr)        MgF2(L)         MgH2(b)        
 MgH2(L)         MgO(L)          Mg(OH)2(cr)     Mg(OH)2(L)      MgS(L)         
 MgSO4(II)       MgSO4(I)        MgSO4(L)        MgSiO3(I)       MgSiO3(II)     
 MgSiO3(III)     MgSiO3(L)       Mg2SiO4(L)      Mg3N2(cr)       NH4CL(II)      
 NH4CL(III)      NH4F(cr)        NH4F(L)         S(a)            S(b)           
 S(L)            SCL2(L)         S2CL2(L)        Si(cr)          Si(L)          
 SiO2(a-qz)      SiO2(b-qz)      SiO2(b-crt)     SiO2(L)         SiS(cr)        
 SiS(L)          SiS2(cr)        SiS2(L)         Si3N4(cr)      






 POINT ITN      T            H           HE          N           S 
                    O           F           MG          SI          CL
                    BR

 SINGULAR MATRIX, ITERATION  1  VARIABLE 10(EQLBRM)
   1   19    1300.000      -5.088     -10.912     -19.403     -25.470
                 -45.761     -51.684     -16.938      -8.417     -32.514
                 -35.487
   2    3    1350.000      -5.141     -10.985     -18.737     -24.792
                 -44.201     -50.542     -16.606      -8.433     -32.231
                 -35.418
   3    4    1400.000      -5.192     -11.057     -18.155     -24.189
                 -42.779     -49.529     -16.282      -8.410     -31.977
                 -35.358
   4    4    1450.000      -5.242     -11.126     -17.641     -23.649
                 -41.475     -48.624     -15.966      -8.358     -31.747
                 -35.305
   5    4    1500.000      -5.291     -11.193     -17.185     -23.162
                 -40.275     -47.808     -15.662      -8.287     -31.538
                 -35.259
   6    4    1600.000      -5.386     -11.324     -16.404     -22.318
                 -38.136     -46.381     -15.095      -8.117     -31.172
                 -35.185
   7    4    1700.000      -5.477     -11.448     -15.756     -21.609
                 -36.281     -45.168     -14.586      -7.938     -30.862
                 -35.130
   8    4    1800.000      -5.565     -11.566     -15.209     -21.005
                 -34.657     -44.118     -14.131      -7.765     -30.599
                 -35.092




               THERMODYNAMIC EQUILIBRIUM PROPERTIES AT ASSIGNED

                           TEMPERATURE AND PRESSURE

 CASE = saturn         

             REACTANT                       MOLES         ENERGY      TEMP
                                                         KJ/KG-MOL      K
 NAME        H2                           1.0000000         0.000      0.000
 NAME        He                           0.1350000         0.000      0.000
 NAME        N2                           0.0002270         0.000      0.000
[...]
 H, KJ/KG         20377.5  21804.9  12194.8  12851.1  13512.1  14177.8  14848.5  16204.8
 U, KJ/KG         13558.8  14627.7  7526.79  8003.60  8485.17  8971.59  9462.95  10460.9
 G, KJ/KG        -71641.0 -76520.9 -43118.0 -45257.9 -47422.2 -49610.1 -51821.1 -56309.9
 S, KJ/(KG)(K)    48.4308  49.1629  42.5483  43.0437  43.5244  43.9917  44.4464  45.3217

 M, (1/n)           2.317    2.317    2.316    2.316    2.316    2.316    2.316    2.316
 MW, MOL WT         2.315    2.315    2.314    2.314    2.314    2.314    2.314    2.315
 (dLV/dLP)t      -1.00009 -1.00016 -1.00003 -1.00004 -1.00006 -1.00009 -1.00012 -1.00020
 (dLV/dLT)p        0.9990   0.9986   0.9996   0.9994   0.9992   0.9989   0.9986   0.9977
 Cp, KJ/(KG)(K)   14.1606  14.3900  13.0787  13.1721  13.2673  13.3641  13.4626  13.6649
 GAMMAs            1.3384   1.3307   1.3780   1.3741   1.3701   1.3661   1.3621   1.3538
 SON VEL,M/SEC     3021.0   3090.4   2536.2   2580.9   2624.4   2666.9   2708.4   2788.5

 MOLE FRACTIONS

 *Br             1.687-12 2.780-12 1.668-14 2.822-14 4.598-14 7.245-14 1.108-13 2.392-13
 *CL             3.539-11 7.167-11 4.824-14 1.039-13 2.112-13 4.078-13 7.523-13 2.276-12
 *F              5.116-16 1.870-15 3.582-21 1.488-20 5.408-20 1.761-19 5.226-19 3.659-18
 *H              8.0980-6 1.6592-5 1.0210-8 2.1995-8 4.4894-8 8.7294-8 1.6248-7 5.0189-7
 HBr             5.7962-9 5.7878-9 5.8894-9 5.8867-9 5.8801-9 5.8691-9 5.8549-9 5.8168-9
 HCL             5.1117-6 5.1190-6 4.9374-6 5.0005-6 5.0377-6 5.0576-6 5.0656-6 5.0581-6
 *HF             2.1775-7 2.5272-7 6.3707-8 7.7161-8 8.9274-8 1.0004-7 1.0962-7 1.2588-7
 *H2             8.7945-1 8.7908-1 8.8037-1 8.8035-1 8.8032-1 8.8028-1 8.8023-1 8.8009-1
 H2F2            9.265-14 1.197-13 1.538-14 2.125-14 2.694-14 3.219-14 3.693-14 4.498-14
 H2O             5.6773-5 1.1055-4 1.6944-7 3.4729-7 6.6456-7 1.2010-6 2.0681-6 5.4420-6
 H2S             1.7204-4 3.0136-4 1.3319-6 2.4427-6 4.2159-6 6.9208-6 1.0894-5 2.4356-5
 *He             1.1891-1 1.1891-1 1.1882-1 1.1883-1 1.1883-1 1.1884-1 1.1884-1 1.1886-1
 *Mg             6.0614-6 1.4078-5 1.2126-9 3.1480-9 7.7466-9 1.8091-8 4.0184-8 1.7258-7
 MgBr            3.242-11 5.393-11 1.547-13 2.808-13 4.951-13 8.470-13 1.406-12 3.552-12
 MgBr2           1.048-13 7.515-14 1.390-12 1.004-12 7.530-13 5.810-13 4.587-13 3.013-13
 MgCL            3.979 -8 6.549 -8 2.058-10 3.726-10 6.530-10 1.109 -9 1.824 -9 4.529 -9
 MgCL2           2.1362-8 1.6446-8 1.4159-7 1.1245-7 9.1413-8 7.5736-8 6.3731-8 4.6811-8
 MgF             1.400 -9 2.709 -9 1.959-12 4.293-12 8.740-12 1.674-11 3.046-11 8.866-11
 MgF2            8.282-12 9.362-12 2.298-12 2.854-12 3.326-12 3.713-12 4.024-12 4.472-12
 MgH             1.652 -7 4.967 -7 3.395-12 1.164-11 3.707-11 1.101-10 3.062-10 1.976 -9
 MgN             1.467-11 6.288-11 5.219-19 4.227-18 2.920-17 1.753-16 9.293-16 1.890-14
 *MgO            1.420-12 1.044-11 1.107-20 9.668-20 7.232-19 4.710-18 2.707-17 6.440-16
 MgOH            8.496 -9 3.530 -8 1.287-14 6.189-14 2.654-13 1.028-12 3.630-12 3.558-11
 Mg(OH)2         1.043 -9 5.198 -9 5.256-16 2.983-15 1.470-14 6.408-14 2.511-13 2.933-12
 MgS             5.057 -9 2.114 -8 7.011-15 3.350-14 1.430-13 5.516-13 1.943-12 1.899-11
 Mg2             5.258-11 2.490-10 6.783-18 4.150-17 2.289-16 1.141-15 5.162-15 8.072-14
 *N              4.948-15 2.667-14 3.780-23 3.734-22 3.059-21 2.133-20 1.293-19 3.318-18
 *NH             3.665-12 1.339-11 1.084-18 7.076-18 3.943-17 1.920-16 8.313-16 1.159-14
 NH2             1.216 -8 2.569 -8 6.254-13 2.257-12 7.250-12 2.113-11 5.671-11 3.321-10
 NH3             3.8923-4 3.8502-4 2.4579-5 3.8954-5 5.8304-5 8.3456-5 1.1530-4 2.0274-4
 NH2OH           4.791-15 2.083-14 5.600-22 4.285-21 2.724-20 1.483-19 7.078-19 1.162-17
 *NO             2.967-15 2.018-14 3.678-24 4.661-23 4.728-22 3.974-21 2.841-20 9.671-19
 *N2             5.322 -6 7.415 -6 5.319-10 1.963 -9 6.291 -9 1.799 -8 4.689 -8 2.550 -7
 N2H2            5.984-14 1.633-13 1.681-20 1.256-19 7.753-19 4.087-18 1.887-17 2.905-16
 N2H4            5.840-13 1.082-12 6.896-18 3.409-17 1.434-16 5.289-16 1.749-15 1.468-14
 *O              2.956-16 2.860-15 2.850-25 3.277-24 3.113-23 2.503-22 1.738-21 5.737-20
 *OH             4.882-11 2.353-10 3.103-17 1.692-16 8.033-16 3.385-15 1.285-14 1.417-13
 *S              4.469-11 2.077-10 3.521-17 1.851-16 8.499-16 3.470-15 1.279-14 1.337-13
 SCL             2.644-16 1.123-15 5.107-22 2.469-21 1.044-20 3.934-20 1.343-19 1.216-18
 SH              1.160 -7 3.447 -7 6.088-12 1.983-11 5.834-11 1.573-10 3.936-10 2.038 -9
 SN              7.560-14 3.970-13 9.656-22 9.337-21 7.367-20 4.896-19 2.810-18 6.417-17
 SO              1.867-14 1.555-13 9.552-23 9.385-22 7.570-21 5.160-20 3.042-19 7.326-18
 S2              6.729-12 3.662-11 1.658-18 1.037-17 5.499-17 2.535-16 1.037-15 1.285-14
 *Si             1.020-10 4.543-10 3.059-17 1.660-16 8.228-16 3.727-15 1.547-14 2.090-13
 SiBr            3.879-13 8.123-13 1.353-16 3.254-16 7.569-16 1.694-15 3.638-15 1.485-14
 SiCL            8.716-11 1.964-10 1.508-14 3.966-14 9.988-14 2.401-13 5.507-13 2.526-12
 SiCL2           3.992-12 4.654-12 3.334-13 4.329-13 5.638-13 7.315-13 9.417-13 1.511-12
 SiF             1.577-12 4.303-12 5.588-17 1.838-16 5.543-16 1.547-15 4.026-15 2.271-14
 SiFCL           2.684-12 3.262-12 1.834-13 2.531-13 3.395-13 4.443-13 5.693-13 8.859-13
 SiF2            4.564-13 5.787-13 2.538-14 3.726-14 5.148-14 6.799-14 8.677-14 1.311-13
 SiF4            1.080-18 4.426-19 4.047-15 1.789-15 7.627-16 3.235-16 1.391-16 2.791-17
 SiH             1.279 -8 4.347 -8 5.101-14 2.070-13 7.829-13 2.757-12 9.047-12 7.978-11
 SiHCL           2.358 -9 4.011 -9 6.105-12 1.182-11 2.239-11 4.132-11 7.402-11 2.171-10
 SiHCL3          1.125-14 6.437-15 9.147-13 5.419-13 3.397-13 2.229-13 1.518-13 7.679-14
 SiHF            9.845-10 1.754 -9 2.141-12 4.376-12 8.489-12 1.572-11 2.793-11 7.902-11
 SiHF3           1.872-14 1.001-14 4.936-12 2.853-12 1.609-12 9.046-13 5.135-13 1.746-13
 SiH2            3.526 -7 8.923 -7 2.552-11 7.425-11 2.064-10 5.460-10 1.373 -9 7.485 -9
 SiH2CL2         1.155-10 8.390-11 1.051 -9 7.992-10 6.341-10 5.195-10 4.361-10 3.236-10
 SiH2F2          1.600-10 1.109-10 3.253 -9 2.427 -9 1.791 -9 1.321 -9 9.804-10 5.565-10
 SiH3            1.9117-6 3.8828-6 1.1585-9 2.6565-9 5.9211-9 1.2754-8 2.6474-8 1.0205-7
 SiH3Br          2.753-10 2.621-10 2.129-10 2.130-10 2.198-10 2.311-10 2.457-10 2.814-10
 SiH3CL          3.6971-7 3.4474-7 3.3968-7 3.3534-7 3.4054-7 3.5203-7 3.6779-7 4.0745-7
 SiH3F           4.1899-7 3.8202-7 5.6876-7 5.5699-7 5.4617-7 5.3635-7 5.2747-7 5.1205-7
 SiH4            4.3026-4 5.1285-4 4.1524-5 5.2982-5 6.8558-5 8.9055-5 1.1537-4 1.8951-4
 SiN             1.478-12 6.818-12 1.702-20 1.528-19 1.181-18 7.962-18 4.739-17 1.206-15
 SiO             5.209 -7 1.733 -6 3.237-12 1.275-11 4.615-11 1.541-10 4.769-10 3.721 -9
 SiO2            3.175-13 2.305-12 2.247-21 2.017-20 1.543-19 1.023-18 5.962-18 1.444-16
 SiS             1.975 -6 5.575 -6 5.232-11 1.745-10 5.409-10 1.562 -9 4.221 -9 2.569 -8
 SiS2            1.260 -9 5.043 -9 1.919-15 9.243-15 3.963-14 1.530-13 5.380-13 5.191-12
 Si2             2.169-13 1.532-12 3.205-22 3.104-21 2.713-20 2.126-19 1.491-18 5.332-17
 Si2N            7.190-13 3.445-12 2.041-21 2.066-20 1.839-19 1.442-18 1.001-17 3.445-16
 Si3             4.548-15 4.014-14 3.088-25 4.094-24 4.938-23 5.329-22 5.110-21 3.297-19
 MgO(cr)         2.6966-4 5.7421-4 6.6831-5 6.2098-5 5.6319-5 4.9693-5 4.2547-5 2.8740-5
 MgS(cr)         1.5705-4 2.3859-5 3.2961-4 3.2851-4 3.2675-4 3.2406-4 3.2010-4 3.0667-4
 Mg2SiO4(cr)     1.3406-4 4.4157-5 1.5201-4 1.5495-4 1.5874-4 1.6342-4 1.6899-4 1.8261-4
 Si2N2O(cr)      0.0000 0 0.0000 0 1.8751-4 1.8032-4 1.7065-4 1.5807-4 1.4214-4 9.8244-5

  * THERMODYNAMIC PROPERTIES FITTED TO 20000.K

    PRODUCTS WHICH WERE CONSIDERED BUT WHOSE MOLE FRACTIONS
    WERE LESS THAN 1.000000E-15 FOR ALL ASSIGNED CONDITIONS

 BrCL            BrF             BrF3            BrF5            BrO            
 OBrO            BrOO            BrO3            Br2             BrBrO          
 BrOBr           CLF             CLF3            CLF5            CLO            
 CLO2            CL2             CL2O            FO              FO2,FOO        
 FO2,OFO         F2              F2O             F2O2            FS2F           
 HNO             HNO2            HNO3            HOCL            HOF            
 HO2             HSO3F           H2O2            H2SO4           H3F3           
 H4F4            H5F5            H6F6            H7F7            Mg2F4          
 NF              NF2             NF3             NHF             NHF2           
 NH2F            NOCL            NOF             NOF3            NO2            
 NO2CL           NO2F            NO3             NO3F            N2F2           
 N2F4            NH2NO2          N2O             N2O3            N2O4           
 N2O5            N3              N3H             *O2             O3             
 SCL2            SF              SF2             SF3             SF4            
 SF5             SF6             SOF2            SO2             SO2CL2         
 SO2FCL          SO2F2           SO3             S2CL2           S2F2           
 S2O             S3              S4              S5              S6             
 S7              S8              SiBr2           SiBr3           SiBr4          
 SiCL3           SiCL4           SiF3            SiHBr3          SiH2Br2        
 Si2F6           Br2(cr)         Br2(L)          H2O(cr)         H2O(L)         
 H2SO4(L)        Mg(cr)          Mg(L)           MgBr2(cr)       MgBr2(L)       
 MgCL2(cr)       MgCL2(L)        MgF2(cr)        MgF2(L)         MgH2(b)        
 MgH2(L)         MgO(L)          Mg(OH)2(cr)     Mg(OH)2(L)      MgS(L)         
 MgSO4(II)       MgSO4(I)        MgSO4(L)        MgSiO3(I)       MgSiO3(II)     
 MgSiO3(III)     MgSiO3(L)       Mg2SiO4(L)      Mg3N2(cr)       NH4CL(II)      
 NH4CL(III)      NH4F(cr)        NH4F(L)         S(a)            S(b)           
 S(L)            SCL2(L)         S2CL2(L)        Si(cr)          Si(L)          
 SiO2(a-qz)      SiO2(b-qz)      SiO2(b-crt)     SiO2(L)         SiS(cr)        
 SiS(L)          SiS2(cr)        SiS2(L)         Si3N4(cr)      






 POINT ITN      T            H           HE          N           S 
                    O           F           MG          SI          CL
                    BR
   1    4    1700.000      -4.928     -10.348     -15.442     -21.399
                 -36.072     -45.103     -14.796      -8.358     -30.347
                 -34.605
   2    3    1800.000      -5.015     -10.466     -14.896     -20.796
                 -34.448     -44.040     -14.339      -8.181     -30.087
                 -34.568
 REMOVE  Si2N2O(cr)     
   2    3    1800.000      -5.015     -10.466     -15.128     -20.709
                 -34.361     -43.908     -14.427      -8.357     -30.071
                 -34.559
   3    4    1900.000      -5.099     -10.579     -15.026     -20.064
                 -32.801     -42.808     -14.145      -8.445     -29.827
                 -34.521
   4    3    2000.000      -5.180     -10.688     -14.943     -19.524
                 -31.435     -41.880     -13.870      -8.474     -29.621
                 -34.497
 REMOVE  MgS(cr)        
   4    2    2000.000      -5.180     -10.688     -14.943     -19.525
                 -31.435     -41.880     -13.870      -8.474     -29.621
                 -34.498




               THERMODYNAMIC EQUILIBRIUM PROPERTIES AT ASSIGNED

                           TEMPERATURE AND PRESSURE

 CASE = saturn         

             REACTANT                       MOLES         ENERGY      TEMP
                                                         KJ/KG-MOL      K
 NAME        H2                           1.0000000         0.000      0.000
 NAME        He                           0.1350000         0.000      0.000
 NAME        N2                           0.0002270         0.000      0.000
 NAME        H2S                          0.0003760         0.000      0.000
 NAME        O2                           0.0004900         0.000      0.000
 NAME        HF                           0.0000007         0.000      0.000
 NAME        Mg                           0.0007960         0.000      0.000
 NAME        Si                           0.0006470         0.000      0.000
 NAME        HCL                          0.0000063         0.000      0.000
 NAME        HBr                          0.0000000         0.000      0.000

 O/F=    0.00000  %FUEL=  0.000000  R,EQ.RATIO=*********  PHI,EQ.RATIO= 0.000000

 THERMODYNAMIC PROPERTIES

 P, BAR           10347.6  10347.6  10347.6  10347.6
 T, K             1700.00  1800.00  1900.00  2000.00
 RHO, KG/CU M    1.6958 2 1.6018 2 1.5176 2 1.4418 2
 H, KJ/KG         17581.8  18972.9  20379.0  21807.1
 U, KJ/KG         11479.9  12512.8  13560.4  14630.2
 G, KJ/KG        -60884.1 -65539.9 -70273.3 -75081.3
 S, KJ/(KG)(K)    46.1564  46.9515  47.7117  48.4442

 M, (1/n)           2.316    2.317    2.317    2.317
 MW, MOL WT         2.315    2.316    2.316    2.315
 (dLV/dLP)t      -1.00032 -1.00005 -1.00008 -1.00009
 (dLV/dLT)p        0.9966   0.9993   0.9988   0.9997
 Cp, KJ/(KG)(K)   13.8763  13.9576  14.1680  14.2526
 GAMMAs            1.3451   1.3454   1.3380   1.3361
 SON VEL,M/SEC     2864.9   2948.1   3020.5   3096.6

 MOLE FRACTIONS

 *Br             4.724-13 8.742-13 1.525-12 2.513-12
 *CL             6.028-12 1.452-11 3.202-11 6.484-11
 *F              1.998-17 1.019-16 4.550-16 1.655-15
 *H              1.3602-6 3.3053-6 7.3250-6 1.5008-5
 HBr             5.7718-9 5.7752-9 5.7944-9 5.7834-9
 HCL             5.0297-6 5.0637-6 5.1124-6 5.1194-6
 *HF             1.3920-7 1.7124-7 2.1408-7 2.4714-7
 *H2             8.7987-1 8.7966-1 8.7941-1 8.7901-1
 H2F2            5.142-14 7.351-14 1.094-13 1.399-13
 H2O             1.2585-5 2.8648-5 6.1924-5 1.1985-4
 H2S             4.8754-5 9.7534-5 1.8765-4 3.2661-4
 *He             1.1889-1 1.1891-1 1.1891-1 1.1891-1
 *Mg             6.2913-7 1.8260-6 4.5469-6 1.0625-5
 MgBr            8.088-12 1.556-11 2.688-11 4.497-11
 MgBr2           2.091-13 1.412-13 9.604-14 6.921-14
 MgCL            1.0133-8 1.9278-8 3.3006-8 5.4648-8
 MgCL2           3.5696-8 2.6453-8 1.9590-8 1.5173-8
 MgF             2.245-10 5.305-10 1.142 -9 2.210 -9
 MgF2            4.755-12 5.862-12 7.340-12 8.259-12
 MgH             1.0324-8 4.1280-8 1.3696-7 4.1444-7
 MgN             2.670-13 2.028-12 1.004-11 4.345-11
 *MgO            1.054-14 1.262-13 1.162-12 8.544-12
 MgOH            2.650-10 1.571 -9 7.685 -9 3.193 -8
 Mg(OH)2         2.527-11 1.851-10 1.137 -9 5.635 -9
 MgS             1.415-10 8.417-10 4.138 -9 1.730 -8
 Mg2             9.189-13 6.692-12 3.616-11 1.733-10
 *N              5.722-17 5.652-16 3.694-15 1.998-14
 *NH             1.166-13 7.121-13 3.025-12 1.109-11
 NH2             1.5528-9 4.8014-9 1.1095-8 2.3518-8
 NH3             3.2797-4 3.9493-4 3.9262-4 3.8968-4
 NH2OH           1.335-16 9.970-16 5.272-15 2.285-14
 *NO             2.108-17 2.768-16 2.416-15 1.639-14
 *N2             1.0977-6 2.4749-6 3.6262-6 5.0864-6
 N2H2            3.146-15 1.618-14 4.983-14 1.369-13
 N2H4            9.298-14 2.965-13 5.943-13 1.108-12
 *O              1.239-18 2.058-17 2.638-16 2.537-15
 *OH             1.161-12 8.143-12 4.817-11 2.308-10
 *S              1.045-12 7.016-12 3.989-11 1.842-10
 SCL             8.326-18 5.029-17 2.609-16 1.101-15
 SH              8.5530-9 3.3030-8 1.1441-7 3.3793-7
 SN              9.811-16 9.383-15 6.157-14 3.223-13
 SO              1.178-16 1.622-15 1.818-14 1.495-13
 S2              1.148-13 9.363-13 6.551-12 3.520-11
 *Si             2.115-12 1.400-11 7.011-11 3.162-10
 SiBr            5.210-14 1.356-13 2.949-13 6.246-13
 SiCL            9.802-12 2.800-11 6.628-11 1.511-10
 SiCL2           2.313-12 2.927-12 3.356-12 3.960-12
 SiF             1.040-13 3.832-13 1.179-12 3.239-12
 SiFCL           1.298-12 1.758-12 2.218-12 2.714-12
 SiF2            1.840-13 2.669-13 3.708-13 4.709-13
 SiH             5.537-10 2.622 -9 9.721 -9 3.345 -8
 SiHCL           5.682-10 1.144 -9 1.982 -9 3.413 -9
 SiHCL3          4.250-14 2.213-14 1.156-14 6.695-15
 SiHF            1.975-10 4.258-10 8.135-10 1.459 -9
 SiHF3           6.477-14 3.254-14 1.827-14 9.733-15
 SiH2            3.4080-8 1.1123-7 2.9636-7 7.5903-7
 SiH2CL2         2.520-10 1.757-10 1.187-10 8.725-11
 SiH2F2          3.309-10 2.246-10 1.589-10 1.102-10
 SiH3            3.4213-7 8.5066-7 1.7761-6 3.6513-6
 SiH3Br          3.233-10 3.132-10 2.827-10 2.723-10
 SiH3CL          4.5370-7 4.2936-7 3.7979-7 3.5844-7
 SiH3F           4.9910-7 4.6681-7 4.2310-7 3.8840-7
 SiH4            2.9989-4 3.8326-4 4.4190-4 5.3314-4
 SiN             2.101-14 1.772-13 9.274-13 4.346-12
 SiO             2.2834-8 1.0473-7 3.9075-7 1.3077-6
 SiO2            2.379-15 2.845-14 2.598-13 1.886-12
 SiS             1.2641-7 4.7529-7 1.4813-6 4.2062-6
 SiS2            3.782-11 2.180-10 1.031 -9 4.124 -9
 Si2             1.293-15 1.575-14 1.254-13 9.073-13
 Si2N            7.957-15 7.293-14 3.792-13 1.868-12
 Si3             1.369-17 2.277-16 2.209-15 2.022-14
 MgO(cr)         2.0551-5 9.7696-5 3.0801-4 6.3791-4
 MgS(cr)         2.8225-4 2.3314-4 1.4194-4 0.0000 0
 Mg2SiO4(cr)     1.9877-4 1.8419-4 1.2322-4 2.6017-5
 Si2N2O(cr)      3.4832-5 0.0000 0 0.0000 0 0.0000 0

  * THERMODYNAMIC PROPERTIES FITTED TO 20000.K

    PRODUCTS WHICH WERE CONSIDERED BUT WHOSE MOLE FRACTIONS
    WERE LESS THAN 1.000000E-15 FOR ALL ASSIGNED CONDITIONS

 BrCL            BrF             BrF3            BrF5            BrO            
 OBrO            BrOO            BrO3            Br2             BrBrO          
 BrOBr           CLF             CLF3            CLF5            CLO            
 CLO2            CL2             CL2O            FO              FO2,FOO        
 FO2,OFO         F2              F2O             F2O2            FS2F           
 HNO             HNO2            HNO3            HOCL            HOF            
 HO2             HSO3F           H2O2            H2SO4           H3F3           
 H4F4            H5F5            H6F6            H7F7            Mg2F4          
 NF              NF2             NF3             NHF             NHF2           
 NH2F            NOCL            NOF             NOF3            NO2            
 NO2CL           NO2F            NO3             NO3F            N2F2           
 N2F4            NH2NO2          N2O             N2O3            N2O4           
 N2O5            N3              N3H             *O2             O3             
 SCL2            SF              SF2             SF3             SF4            
 SF5             SF6             SOF2            SO2             SO2CL2         
 SO2FCL          SO2F2           SO3             S2CL2           S2F2           
 S2O             S3              S4              S5              S6             
 S7              S8              SiBr2           SiBr3           SiBr4          
 SiCL3           SiCL4           SiF3            SiF4            SiHBr3         
 SiH2Br2         Si2F6           Br2(cr)         Br2(L)          H2O(cr)        
 H2O(L)          H2SO4(L)        Mg(cr)          Mg(L)           MgBr2(cr)      
 MgBr2(L)        MgCL2(cr)       MgCL2(L)        MgF2(cr)        MgF2(L)        
 MgH2(b)         MgH2(L)         MgO(L)          Mg(OH)2(cr)     Mg(OH)2(L)     
 MgS(L)          MgSO4(II)       MgSO4(I)        MgSO4(L)        MgSiO3(I)      
 MgSiO3(II)      MgSiO3(III)     MgSiO3(L)       Mg2SiO4(L)      Mg3N2(cr)      
 NH4CL(II)       NH4CL(III)      NH4F(cr)        NH4F(L)         S(a)           
 S(b)            S(L)            SCL2(L)         S2CL2(L)        Si(cr)         
 Si(L)           SiO2(a-qz)      SiO2(b-qz)      SiO2(b-crt)     SiO2(L)        
 SiS(cr)         SiS(L)          SiS2(cr)        SiS2(L)         Si3N4(cr)      



