
 *******************************************************************************

         NASA-GLENN CHEMICAL EQUILIBRIUM PROGRAM CEA2, MAY 21, 2004
                   BY  BONNIE MCBRIDE AND SANFORD GORDON
      REFS: NASA RP-1311, PART I, 1994 AND NASA RP-1311, PART II, 1996

 *******************************************************************************



 prob
 case=saturn tp
 t,k= 350,400,450,500,550,600,650,700,750
 p,bar= 22.20, 34.89, 52.02, 74.41, 102.88, 138.33, 181.70, 234.00, 296.30
 react
   name=H2 moles=1.0
   name=He moles=0.135
 #  name=CH4 moles=5.33e-3
   name=N2 moles = 2.27e-4
   name=H2S moles=3.76e-4
 #  name=PH3 moles = 7.28e-6
  
 # one time solar water
   name=O2 moles = 4.9e-4
 # all others are ten time solar
   name=HF moles = 7.26e-7
 #  name=Na moles = 3.48e-5
   name=Mg moles = 7.96e-4
   name=Si moles=6.47e-4
  
   name=HCL moles = 6.32e-6
 #  name=K moles = 2.14e-6
 #  name=Ca moles = 4.38e-5
 #  name=GeH4 moles = 8.93e-8
   name=HBr moles=6.93e-9
  
 output    trace = 1e-20
 plot t p Si2N2O(cr) Mg2SiO4(cr) MgSiO3(I) MgSiO3(II) MgSiO3(III) MgSiO3(L) SiO2 
 SiO SiH4 SiH3 SiH2
  
 end

 OPTIONS: TP=T  HP=F  SP=F  TV=F  UV=F  SV=F  DETN=F  SHOCK=F  REFL=F  INCD=F
 RKT=F  FROZ=F  EQL=F  IONS=F  SIUNIT=T  DEBUGF=F  SHKDBG=F  DETDBG=F  TRNSPT=F

 T,K =   350.0000   400.0000   450.0000   500.0000   550.0000   600.0000   650.0000

 T,K =   700.0000   750.0000

 TRACE= 1.00E-20  S/R= 0.000000E+00  H/R= 0.000000E+00  U/R= 0.000000E+00

 P,BAR =    22.200000    34.890000    52.020000    74.410000   102.880000   138.330000   181.700000

 P,BAR =   234.000000   296.300000

    REACTANT           MOLES    (ENERGY/R),K   TEMP,K  DENSITY
        EXPLODED FORMULA
 N: H2               1.000000   0.000000E+00     0.00  0.0000
          H  2.00000
 N: He               0.135000   0.000000E+00     0.00  0.0000
          HE 1.00000
 N: N2               0.000227   0.000000E+00     0.00  0.0000
          N  2.00000
 N: H2S              0.000376   0.000000E+00     0.00  0.0000
          H  2.00000  S  1.00000
 N: O2               0.000490   0.000000E+00     0.00  0.0000
          O  2.00000
 N: HF               0.000001   0.000000E+00     0.00  0.0000
          H  1.00000  F  1.00000
 N: Mg               0.000796   0.000000E+00     0.00  0.0000
          MG 1.00000
 N: Si               0.000647   0.000000E+00     0.00  0.0000
          SI 1.00000
 N: HCL              0.000006   0.000000E+00     0.00  0.0000
          H  1.00000  CL 1.00000
 N: HBr              0.000000   0.000000E+00     0.00  0.0000
          H  1.00000  BR 1.00000

  SPECIES BEING CONSIDERED IN THIS SYSTEM
 (CONDENSED PHASE MAY HAVE NAME LISTED SEVERAL TIMES)
  LAST thermo.inp UPDATE:    9/09/04

  g 3/97  *Br              tpis89  BrCL             tpis89  BrF            
  tpis89  BrF3             tpis89  BrF5             j 3/96  BrO            
  j 3/96  OBrO             j 3/96  BrOO             j 3/96  BrO3           
  tpis89  Br2              j 3/96  BrBrO            j 3/96  BrOBr          
  g 7/97  *CL              tpis89  CLF              tpis89  CLF3           
  tpis89  CLF5             tpis89  CLO              g 7/93  CLO2           
  tpis89  CL2              tpis89  CL2O             g 5/97  *F             
  j 9/95  FO               j 9/95  FO2,FOO          j 9/95  FO2,OFO        
  tpis89  F2               g 4/99  F2O              j 9/95  F2O2           
  j 6/76  FS2F             g 6/97  *H               tpis89  HBr            
  tpis89  HCL              tpis89  *HF              g10/01  HNO            
  tpis89  HNO2             g 5/99  HNO3             g 1/01  HOCL           
  tpis89  HOF              g 4/02  HO2              j 6/72  HSO3F          
  tpis78  *H2              tpis89  H2F2             g 8/89  H2O            
  g 6/99  H2O2             g 4/01  H2S              tpis89  H2SO4          
  tpis89  H3F3             tpis89  H4F4             tpis89  H5F5           
  tpis89  H6F6             tpis89  H7F7             g 5/97  *He            
  g 6/97  *Mg              tpis96  MgBr             tpis96  MgBr2          
  tpis96  MgCL             tpis96  MgCL2            tpis96  MgF            
  tpis96  MgF2             tpis96  MgH              j 3/64  MgN            
  tpis96  *MgO             tpis96  MgOH             tpis96  Mg(OH)2        
  tpis96  MgS              tpis96  Mg2              j12/75  Mg2F4          
  g 5/97  *N               tpis89  NF               g 4/99  NF2            
  g 4/99  NF3              g 4/99  *NH              tpis89  NHF            
  tpis89  NHF2             g 3/01  NH2              tpis89  NH2F           
  tpis89  NH3              tpis89  NH2OH            tpis89  *NO            
  g 4/99  NOCL             g 4/99  NOF              tpis89  NOF3           
  g 4/99  NO2              g 4/99  NO2CL            g 4/99  NO2F           
  j12/64  NO3              tpis89  NO3F             tpis78  *N2            
  tpis89  N2F2             tpis89  N2F4             g 5/99  N2H2           
  tpis89  NH2NO2           g 4/99  N2H4             g 4/99  N2O            
  g 4/99  N2O3             tpis89  N2O4             g 4/99  N2O5           
  tpis89  N3               g 4/99  N3H              g 5/97  *O             
  g 4/02  *OH              tpis89  *O2              g 8/01  O3             
  g 5/97  *S               j 6/78  SCL              j 6/78  SCL2           
  tpis89  SF               tpis89  SF2              tpis89  SF3            
  tpis89  SF4              tpis89  SF5              tpis89  SF6            
  g10/01  SH               tpis89  SN               tpis89  SO             
  tpis89  SOF2             tpis89  SO2              j 6/71  SO2CL2         
  j 6/71  SO2FCL           tpis89  SO2F2            tpis89  SO3            
  tpis89  S2               g12/00  S2CL2            j 6/76  S2F2           
  tpis89  S2O              tpis89  S3               tpis89  S4             
  tpis89  S5               tpis89  S6               tpis89  S7             
  tpis89  S8               g 8/97  *Si              tpis91  SiBr           
  tpis91  SiBr2            tpis91  SiBr3            tpis91  SiBr4          
  tpis91  SiCL             tpis91  SiCL2            tpis91  SiCL3          
  tpis91  SiCL4            tpis91  SiF              tpis91  SiFCL          
  tpis91  SiF2             tpis91  SiF3             g 6/01  SiF4           
  tpis91  SiH              j12/76  SiHBr3           tpis91  SiHCL          
  j12/76  SiHCL3           tpis91  SiHF             j 6/76  SiHF3          
  g 3/01  SiH2             j12/76  SiH2Br2          j12/76  SiH2CL2        
  j 6/76  SiH2F2           g 3/99  SiH3             j12/76  SiH3Br         
  j12/76  SiH3CL           j 6/76  SiH3F            tpis91  SiH4           
  g 5/99  SiN              tpis91  SiO              tpis91  SiO2           
  tpis91  SiS              tpis91  SiS2             tpis91  Si2            
  g 6/01  Si2F6            j 3/67  Si2N             g 7/95  Si3            
  g 8/01  Br2(cr)          g 8/01  Br2(L)           g 8/01  Br2(L)         
  g11/99  H2O(cr)          g 8/01  H2O(L)           g 8/01  H2O(L)         
  j 9/77  H2SO4(L)         srd 93  Mg(cr)           srd 93  Mg(cr)         
  srd 93  Mg(L)            tpis96  MgBr2(cr)        tpis96  MgBr2(L)       
  tpis96  MgCL2(cr)        tpis96  MgCL2(cr)        tpis96  MgCL2(L)       
  tpis96  MgF2(cr)         tpis96  MgF2(cr)         tpis96  MgF2(L)        
  tpis96  MgH2(b)          tpis96  MgH2(L)          tpis96  MgO(cr)        
  tpis96  MgO(cr)          tpis96  MgO(L)           tpis96  Mg(OH)2(cr)    
  tpis96  Mg(OH)2(cr)      tpis96  Mg(OH)2(L)       tpis96  MgS(cr)        
  tpis96  MgS(cr)          tpis96  MgS(L)           tpis96  MgSO4(II)      
  tpis96  MgSO4(II)        tpis96  MgSO4(I)         tpis96  MgSO4(L)       
  j12/67  MgSiO3(I)        j12/67  MgSiO3(II)       j12/67  MgSiO3(III)    
  j12/67  MgSiO3(L)        g11/00  Mg2SiO4(cr)      g11/00  Mg2SiO4(cr)    
  g11/00  Mg2SiO4(L)       tpis96  Mg3N2(cr)        j 9/65  NH4CL(II)      
  j 9/65  NH4CL(III)       j 9/65  NH4CL(III)       tpis89  NH4F(cr)       
  tpis89  NH4F(cr)         tpis89  NH4F(L)          tpis89  S(a)           
  tpis89  S(b)             tpis89  S(L)             tpis89  S(L)           
  tpis89  S(L)             tpis89  S(L)             tpis89  S(L)           
  j 6/78  SCL2(L)          j 6/78  S2CL2(L)         tpis91  Si(cr)         
  tpis91  Si(cr)           tpis91  Si(L)            tpis91  SiO2(a-qz)     
  tpis91  SiO2(b-qz)       tpis91  SiO2(b-crt)      tpis91  SiO2(L)        
  tpis91  SiS(cr)          tpis91  SiS(L)           tpis91  SiS2(cr)       
  tpis91  SiS2(cr)         tpis91  SiS2(L)          g 7/95  Si2N2O(cr)     
  g 7/95  Si2N2O(cr)       tpis91  Si3N4(cr)        tpis91  Si3N4(cr)      

 O/F =   0.000000

                       EFFECTIVE FUEL     EFFECTIVE OXIDANT        MIXTURE
 ENTHALPY                  h(2)/R              h(1)/R               h0/R
 (KG-MOL)(K)/KG        0.00000000E+00      0.00000000E+00      0.00000000E+00

 KG-FORM.WT./KG             bi(2)               bi(1)               b0i
  *H                   0.76107833E+00      0.00000000E+00      0.76107833E+00
  *He                  0.51353297E-01      0.00000000E+00      0.51353297E-01
  *N                   0.17269924E-03      0.00000000E+00      0.17269924E-03
  *S                   0.14302844E-03      0.00000000E+00      0.14302844E-03
  *O                   0.37278690E-03      0.00000000E+00      0.37278690E-03
  *F                   0.27616662E-06      0.00000000E+00      0.27616662E-06
  *Mg                  0.30279426E-03      0.00000000E+00      0.30279426E-03
  *Si                  0.24611543E-03      0.00000000E+00      0.24611543E-03
  *CL                  0.24040951E-05      0.00000000E+00      0.24040951E-05
  *Br                  0.26361359E-08      0.00000000E+00      0.26361359E-08

 POINT ITN      T            H           HE          N           S 
                    O           F           MG          SI          CL
                    BR
   1   58     350.000      -6.394     -14.232     -24.565     -24.013
                -120.917    -174.684      27.506       8.505    -103.596
                 -92.579
 ADD  MgO(cr)        
   1   15     350.000      -6.394     -14.232     -24.566     -24.011
                 -98.698    -158.615    -111.329       8.493     -77.299
                 -63.659
 ADD  SiO2(a-qz)     
   1    5     350.000      -6.394     -14.232     -24.566     -24.011
                -163.169    -158.464     -46.858       8.338     -77.145
                 -63.504
 ADD  Si3N4(cr)      
   1    7     350.000      -6.393     -14.232     -75.224     -24.010
                -162.683    -157.496     -47.345       7.365     -76.194
                 -62.532
 ADD  MgS(cr)        
   1    7     350.000      -6.393     -14.233     -73.476     -77.195
                -161.517    -155.213     -48.510       5.034     -74.085
                 -60.203
 ADD  MgF2(cr)       
   1    3     350.000      -6.393     -14.233     -73.495     -77.207
                -161.530    -172.394     -48.498       5.059     -74.106
                 -60.228
 ADD  MgCL2(cr)      
   1    5     350.000      -6.393     -14.233     -73.628     -77.297
                -161.619    -172.438     -48.409       5.237     -91.940
                 -60.406
 ADD  Si2N2O(cr)     

 SINGULAR MATRIX, ITERATION  0  VARIABLE 16(EQLBRM)

 TRY REMOVING CONDENSED SPECIES (EQLBRM)
 REMOVE  Si3N4(cr)      
   1    2     350.000      -6.393     -14.233     -90.038     -77.297
                -161.619    -172.438     -48.409       5.237     -91.940
                 -60.406
 ADD  Si(cr)         
   1    3     350.000      -6.393     -14.233     -84.391     -73.532
                -157.854    -170.556     -52.173      -2.292     -90.057
                 -53.355
 ADD  MgBr2(cr)      
   1    2     350.000      -6.393     -14.233     -84.391     -73.532
                -157.854    -170.556     -52.173      -2.292     -90.057
                 -71.379
 ADD  Mg2SiO4(cr)    

 SINGULAR MATRIX, ITERATION  0  VARIABLE 19(EQLBRM)

 TRY REMOVING CONDENSED SPECIES (EQLBRM)
 REMOVE  MgBr2(cr)      

 SINGULAR MATRIX, ITERATION  0  VARIABLE 18(EQLBRM)

 TRY REMOVING CONDENSED SPECIES (EQLBRM)
 REMOVE  MgF2(cr)       

 SINGULAR MATRIX, ITERATION  0  VARIABLE 17(EQLBRM)

 TRY REMOVING CONDENSED SPECIES (EQLBRM)
 REMOVE  MgCL2(cr)      

 SINGULAR MATRIX, ITERATION  0  VARIABLE 16(EQLBRM)

 TRY REMOVING CONDENSED SPECIES (EQLBRM)
 REMOVE  Si(cr)         

 SINGULAR MATRIX, ITERATION  0  VARIABLE 15(EQLBRM)

 TRY REMOVING CONDENSED SPECIES (EQLBRM)
 REMOVE  SiO2(a-qz)     
   1   20     350.000      -6.393     -14.233     -84.465     -88.037
                -172.359    -155.214     -37.668       5.034     -74.087
                 -60.575
 ADD  MgF2(cr)       
   1    4     350.000      -6.393     -14.233     -84.484     -88.049
                -172.372    -177.815     -37.656       5.059     -74.108
                 -60.592
 ADD  MgCL2(cr)      
   1    5     350.000      -6.393     -14.233     -84.617     -88.138
                -172.461    -177.859     -37.567       5.237     -97.360
                 -60.711
 ADD  Si(cr)         
   1    4     350.000      -6.393     -14.233     -78.970     -84.374
                -168.696    -175.977     -41.332      -2.292     -95.478
                 -58.163
 ADD  MgBr2(cr)      
   1    2     350.000      -6.393     -14.233     -78.970     -84.374
                -168.696    -175.977     -41.332      -2.292     -95.478
                 -76.800
   2    2     400.000      -6.440     -14.300     -69.112     -74.416
                -147.823    -154.358     -36.493      -2.360     -84.179
                 -68.044
   3    2     450.000      -6.501     -14.388     -61.470     -66.703
                -131.613    -137.578     -32.776      -2.450     -75.431
                 -61.276
   4    2     500.000      -6.570     -14.485     -55.379     -60.561
                -118.667    -124.184     -29.840      -2.553     -68.465
                 -55.895
   5    2     550.000      -6.642     -14.588     -50.415     -55.557
                -108.093    -113.249     -27.469      -2.664     -62.792
                 -51.520
   6    2     600.000      -6.715     -14.693     -46.296     -51.406
                 -99.298    -104.158     -25.520      -2.777     -58.088
                 -47.898
   7    2     650.000      -6.789     -14.797     -42.826     -47.911
                 -91.870     -96.484     -23.893      -2.892     -54.128
                 -44.853
   8    2     700.000      -6.862     -14.901     -39.864     -44.929
                 -85.516     -89.922     -22.517      -3.008     -50.750
                 -42.262




               THERMODYNAMIC EQUILIBRIUM PROPERTIES AT ASSIGNED

                           TEMPERATURE AND PRESSURE

 CASE = saturn         

             REACTANT                       MOLES         ENERGY      TEMP
                                                         KJ/KG-MOL      K
 NAME        H2                           1.0000000         0.000      0.000
 NAME        He                           0.1350000         0.000      0.000
 NAME        N2                           0.0002270         0.000      0.000
 NAME        H2S                          0.0003760         0.000      0.000
 NAME        O2                           0.0004900         0.000      0.000
 NAME        HF                           0.0000007         0.000      0.000
 NAME        Mg                           0.0007960         0.000      0.000
 NAME        Si                           0.0006470         0.000      0.000
 NAME        HCL                          0.0000063         0.000      0.000
 NAME        HBr                          0.0000000         0.000      0.000

 O/F=    0.00000  %FUEL=  0.000000  R,EQ.RATIO=*********  PHI,EQ.RATIO= 0.000000

 THERMODYNAMIC PROPERTIES

 P, BAR            22.200   22.200   22.200   22.200   22.200   22.200   22.200   22.200
 T, K              350.00   400.00   450.00   500.00   550.00   600.00   650.00   700.00
 RHO, KG/CU M    1.7663 0 1.5455 0 1.3738 0 1.2364 0 1.1240 0 1.0304 0 9.5110-1 8.8317-1
 H, KJ/KG          338.10   947.24  1557.72  2168.81  2780.39  3392.60  4005.73  4620.09
 U, KJ/KG         -918.74  -489.15  -58.220   373.33   805.35  1238.02  1671.60  2106.41
 G, KJ/KG        -16583.0 -19041.8 -21577.1 -24180.4 -26845.0 -29565.2 -32336.5 -35155.1
 S, KJ/(KG)(K)    48.3460  49.9727  51.4108  52.6985  53.8643  54.9296  55.9112  56.8217

 M, (1/n)           2.315    2.315    2.315    2.315    2.315    2.315    2.315    2.315
 MW, MOL WT         2.314    2.314    2.314    2.314    2.314    2.314    2.314    2.314
 (dLV/dLP)t      -1.00000 -1.00000 -1.00000 -1.00000 -1.00000 -1.00000 -1.00000 -1.00000
 (dLV/dLT)p        1.0000   1.0000   1.0000   1.0000   1.0000   1.0000   1.0000   1.0000
 Cp, KJ/(KG)(K)   12.1596  12.2000  12.2170  12.2265  12.2371  12.2524  12.2739  12.3013
 GAMMAs            1.4191   1.4171   1.4163   1.4158   1.4153   1.4146   1.4136   1.4123
 SON VEL,M/SEC     1335.5   1426.7   1512.8   1594.4   1671.9   1745.8   1816.4   1884.1

 MOLE FRACTIONS

 *Br             0.000  0 4.765-37 1.900-32 9.052-29 9.201-26 2.935-23 3.841-21 2.495-19
 *H              2.231-31 2.655-27 3.967-24 1.385-21 1.680-19 9.205-18 2.738-16 5.035-15
 HBr             2.169-22 3.037-19 8.359-17 7.378-15 2.850-13 5.928-12 7.663-11 6.821-10
 HCL             9.301-23 1.494-19 4.581-17 4.412-15 1.832-13 4.048-12 5.511-11 5.130-10
 *HF             2.155-31 4.412-27 9.845-24 4.655-21 7.120-19 4.673-17 1.600-15 3.285-14
 *H2             8.8042-1 8.8042-1 8.8042-1 8.8041-1 8.8041-1 8.8041-1 8.8041-1 8.8041-1
 H2O             6.470-35 2.352-30 8.155-27 5.462-24 1.107-21 9.166-20 3.812-18 9.234-17
 H2S             2.014-30 1.789-26 2.061-23 5.699-21 5.594-19 2.529-17 6.301-16 9.844-15
 *He             1.1881-1 1.1881-1 1.1881-1 1.1881-1 1.1881-1 1.1881-1 1.1881-1 1.1881-1
 *Mg             3.373-34 2.530-29 1.547-25 1.638-22 4.848-20 5.517-18 3.012-16 9.241-15
 MgBr            0.000  0 2.081-35 1.066-30 6.101-27 7.108-24 2.513-21 3.552-19 2.445-17
 MgBr2           1.970-25 2.304-21 3.265-18 1.058-15 1.175-13 5.841-12 1.568-10 2.594 -9
 MgCL            0.000  0 4.514-35 2.184-30 1.196-26 1.343-23 4.609-21 6.356-19 4.286-17
 MgCL2           3.979-29 1.414-24 4.758-21 3.082-18 6.033-16 4.817-14 1.932-12 4.512-11
 NH3             9.450-28 2.457-24 1.075-21 1.357-19 6.951-18 1.816-16 2.830-15 2.946-14
 SiBr2           0.000  0 0.000  0 2.590-34 3.659-30 8.915-27 5.818-24 1.379-21 1.475-19
 SiCL2           0.000  0 0.000  0 8.176-35 1.364-30 3.811-27 2.789-24 7.289-22 8.485-20
 SiHBr3          0.000  0 1.212-36 3.947-32 1.558-28 1.331-25 3.610-23 4.060-21 2.288-19
 SiHCL           0.000  0 2.051-36 8.344-32 3.974-28 3.985-25 1.245-22 1.586-20 1.000-18
 SiHCL3          0.000  0 3.173-34 6.044-30 1.553-26 9.330-24 1.889-21 1.658-19 7.564-18
 SiHF            0.000  0 0.000  0 3.288-34 2.851-30 4.668-27 2.193-24 3.949-22 3.350-20
 SiHF3           0.000  0 1.401-35 4.443-31 1.713-27 1.432-24 3.816-22 4.226-20 2.352-18
 SiH2            0.000  0 1.787-33 1.556-29 2.166-26 7.970-24 1.083-21 6.848-20 2.377-18
 SiH2Br2         1.112-30 1.339-26 1.910-23 6.162-21 6.774-19 3.332-17 8.845-16 1.449-14
 SiH2CL2         1.051-28 7.583-25 7.253-22 1.698-19 1.436-17 5.673-16 1.252-14 1.750-13
 SiH2F2          9.890-30 1.080-25 1.424-22 4.302-20 4.477-18 2.102-16 5.363-15 8.496-14
 SiH3            1.460-30 8.779-27 7.364-24 1.565-21 1.232-19 4.615-18 9.797-17 1.334-15
 SiH3Br          2.486-19 5.337-17 3.311-15 8.686-14 1.225-12 1.090-11 6.821-11 3.245-10
 SiH3CL          1.453-18 2.571-16 1.371-14 3.185-13 4.066-12 3.328-11 1.941-10 8.692-10
 SiH3F           3.834-19 8.495-17 5.392-15 1.439-13 2.056-12 1.848-11 1.166-10 5.587-10
 SiH4            1.1695-8 4.6659-8 1.3032-7 2.8618-7 5.3111-7 8.7298-7 1.3117-6 1.8414-6
 SiS             0.000  0 8.556-38 7.465-33 6.618-29 1.113-25 5.377-23 9.961-21 8.689-19
 MgBr2(cr)       3.049 -9 3.049 -9 3.049 -9 3.049 -9 3.049 -9 3.035 -9 2.894 -9 5.108-10
 MgCL2(cr)       2.7811-6 2.7811-6 2.7811-6 2.7811-6 2.7811-6 2.7810-6 2.7810-6 2.7804-6
 MgF2(cr)        3.1947-7 3.1947-7 3.1947-7 3.1947-7 3.1947-7 3.1946-7 3.1942-7 3.1921-7
 MgO(cr)         7.0360-5 7.0360-5 7.0360-5 7.0360-5 7.0360-5 7.0360-5 7.0360-5 7.0363-5
 MgS(cr)         3.3091-4 3.3091-4 3.3091-4 3.3091-4 3.3091-4 3.3091-4 3.3091-4 3.3091-4
 Mg2SiO4(cr)     1.4809-4 1.4809-4 1.4809-4 1.4809-4 1.4809-4 1.4809-4 1.4809-4 1.4809-4
 Si(cr)          2.1759-5 2.1724-5 2.1640-5 2.1484-5 2.1239-5 2.0898-5 2.0474-5 1.9936-5
 Si2N2O(cr)      1.9978-4 1.9978-4 1.9978-4 1.9978-4 1.9978-4 1.9978-4 1.9978-4 1.9978-4

  * THERMODYNAMIC PROPERTIES FITTED TO 20000.K

    PRODUCTS WHICH WERE CONSIDERED BUT WHOSE MOLE FRACTIONS
    WERE LESS THAN 1.000000E-20 FOR ALL ASSIGNED CONDITIONS

 BrCL            BrF             BrF3            BrF5            BrO            
 OBrO            BrOO            BrO3            Br2             BrBrO          
 BrOBr           *CL             CLF             CLF3            CLF5           
 CLO             CLO2            CL2             CL2O            *F             
 FO              FO2,FOO         FO2,OFO         F2              F2O            
 F2O2            FS2F            HNO             HNO2            HNO3           
 HOCL            HOF             HO2             HSO3F           H2F2           
 H2O2            H2SO4           H3F3            H4F4            H5F5           
 H6F6            H7F7            MgF             MgF2            MgH            
 MgN             *MgO            MgOH            Mg(OH)2         MgS            
 Mg2             Mg2F4           *N              NF              NF2            
 NF3             *NH             NHF             NHF2            NH2            
 NH2F            NH2OH           *NO             NOCL            NOF            
 NOF3            NO2             NO2CL           NO2F            NO3            
 NO3F            *N2             N2F2            N2F4            N2H2           
 NH2NO2          N2H4            N2O             N2O3            N2O4           
 N2O5            N3              N3H             *O              *OH            
 *O2             O3              *S              SCL             SCL2           
 SF              SF2             SF3             SF4             SF5            
 SF6             SH              SN              SO              SOF2           
 SO2             SO2CL2          SO2FCL          SO2F2           SO3            
 S2              S2CL2           S2F2            S2O             S3             
 S4              S5              S6              S7              S8             
 *Si             SiBr            SiBr3           SiBr4           SiCL           
 SiCL3           SiCL4           SiF             SiFCL           SiF2           
 SiF3            SiF4            SiH             SiN             SiO            
 SiO2            SiS2            Si2             Si2F6           Si2N           
 Si3             Br2(cr)         Br2(L)          H2O(cr)         H2O(L)         
 H2SO4(L)        Mg(cr)          Mg(L)           MgBr2(L)        MgCL2(L)       
 MgF2(L)         MgH2(b)         MgH2(L)         MgO(L)          Mg(OH)2(cr)    
 Mg(OH)2(L)      MgS(L)          MgSO4(II)       MgSO4(I)        MgSO4(L)       
 MgSiO3(I)       MgSiO3(II)      MgSiO3(III)     MgSiO3(L)       Mg2SiO4(L)     
 Mg3N2(cr)       NH4CL(II)       NH4CL(III)      NH4F(cr)        NH4F(L)        
 S(a)            S(b)            S(L)            SCL2(L)         S2CL2(L)       
 Si(L)           SiO2(a-qz)      SiO2(b-qz)      SiO2(b-crt)     SiO2(L)        
 SiS(cr)         SiS(L)          SiS2(cr)        SiS2(L)         Si3N4(cr)      






 POINT ITN      T            H           HE          N           S 
                    O           F           MG          SI          CL
                    BR
   1    1     750.000      -6.933     -15.002     -37.310     -42.358
                 -80.021     -84.249     -21.341      -3.122     -47.838
                 -40.031
 REMOVE  MgBr2(cr)      
   1    3     750.000      -6.933     -15.002     -37.310     -42.358
                 -80.021     -84.249     -21.341      -3.122     -47.838
                 -41.311
   2    2     350.000      -6.167     -13.780     -78.970     -84.374
                -168.696    -175.977     -41.332      -2.292     -95.478
                 -76.800
   3    2     400.000      -6.214     -13.848     -69.112     -74.416
                -147.823    -154.358     -36.493      -2.360     -84.179
                 -68.044
   4    2     450.000      -6.275     -13.935     -61.470     -66.703
                -131.613    -137.578     -32.776      -2.450     -75.431
                 -61.276
   5    2     500.000      -6.344     -14.033     -55.379     -60.561
                -118.667    -124.184     -29.840      -2.553     -68.465
                 -55.895
   6    2     550.000      -6.416     -14.136     -50.415     -55.557
                -108.093    -113.249     -27.469      -2.664     -62.792
                 -51.520
   7    2     600.000      -6.489     -14.241     -46.296     -51.406
                 -99.298    -104.158     -25.520      -2.777     -58.088
                 -47.898
   8    2     650.000      -6.563     -14.345     -42.826     -47.911
                 -91.870     -96.484     -23.893      -2.892     -54.128
                 -44.853




               THERMODYNAMIC EQUILIBRIUM PROPERTIES AT ASSIGNED

                           TEMPERATURE AND PRESSURE

 CASE = saturn         

             REACTANT                       MOLES         ENERGY      TEMP
                                                         KJ/KG-MOL      K
 NAME        H2                           1.0000000         0.000      0.000
 NAME        He                           0.1350000         0.000      0.000
 NAME        N2                           0.0002270         0.000      0.000
 NAME        H2S                          0.0003760         0.000      0.000
 NAME        O2                           0.0004900         0.000      0.000
 NAME        HF                           0.0000007         0.000      0.000
 NAME        Mg                           0.0007960         0.000      0.000
 NAME        Si                           0.0006470         0.000      0.000
 NAME        HCL                          0.0000063         0.000      0.000
 NAME        HBr                          0.0000000         0.000      0.000

 O/F=    0.00000  %FUEL=  0.000000  R,EQ.RATIO=*********  PHI,EQ.RATIO= 0.000000

 THERMODYNAMIC PROPERTIES

 P, BAR            22.200   34.890   34.890   34.890   34.890   34.890   34.890   34.890
 T, K              750.00   350.00   400.00   450.00   500.00   550.00   600.00   650.00
 RHO, KG/CU M    8.2429-1 2.7760 0 2.4290 0 2.1591 0 1.9432 0 1.7666 0 1.6193 0 1.4948 0
 H, KJ/KG         5235.96   338.10   947.24  1557.72  2168.82  2780.39  3392.61  4005.74
 U, KJ/KG         2542.73  -918.74  -489.15  -58.219   373.33   805.36  1238.02  1671.61
 G, KJ/KG        -38017.7 -16014.8 -18392.4 -20846.6 -23368.7 -25952.0 -28591.1 -31281.2
 S, KJ/(KG)(K)    57.6715  46.7225  48.3492  49.7873  51.0750  52.2408  53.3061  54.2877

 M, (1/n)           2.315    2.315    2.315    2.315    2.315    2.315    2.315    2.315
 MW, MOL WT         2.314    2.314    2.314    2.314    2.314    2.314    2.314    2.314
 (dLV/dLP)t      -1.00000 -1.00000 -1.00000 -1.00000 -1.00000 -1.00000 -1.00000 -1.00000
 (dLV/dLT)p        1.0000   1.0000   1.0000   1.0000   1.0000   1.0000   1.0000   1.0000
 Cp, KJ/(KG)(K)   12.3344  12.1596  12.2000  12.2170  12.2265  12.2371  12.2525  12.2739
 GAMMAs            1.4107   1.4191   1.4171   1.4163   1.4158   1.4153   1.4146   1.4135
 SON VEL,M/SEC     1949.2   1335.5   1426.7   1512.8   1594.4   1671.9   1745.8   1816.4

 MOLE FRACTIONS

 *Br             2.573-18 0.000  0 3.032-37 1.209-32 5.760-29 5.854-26 1.868-23 2.444-21
 *H              6.303-14 1.779-31 2.118-27 3.164-24 1.105-21 1.340-19 7.342-18 2.184-16
 HBr             1.253 -9 1.730-22 2.422-19 6.668-17 5.885-15 2.273-13 4.728-12 6.113-11
 HCL             3.524 -9 7.419-23 1.192-19 3.654-17 3.519-15 1.461-13 3.229-12 4.396-11
 *HF             4.484-13 1.719-31 3.519-27 7.853-24 3.713-21 5.679-19 3.727-17 1.276-15
 *H2             8.8041-1 8.8042-1 8.8042-1 8.8041-1 8.8041-1 8.8041-1 8.8041-1 8.8041-1
 H2O             1.452-15 6.470-35 2.352-30 8.155-27 5.462-24 1.107-21 9.166-20 3.812-18
 H2S             1.059-13 2.014-30 1.789-26 2.061-23 5.699-21 5.594-19 2.529-17 6.301-16
 *He             1.1881-1 1.1881-1 1.1881-1 1.1881-1 1.1881-1 1.1881-1 1.1881-1 1.1881-1
 *Mg             1.788-13 2.146-34 1.610-29 9.845-26 1.042-22 3.084-20 3.510-18 1.917-16
 MgBr            2.635-16 0.000  0 1.324-35 6.781-31 3.882-27 4.523-24 1.599-21 2.260-19
 MgBr2           2.255 -9 1.254-25 1.466-21 2.078-18 6.734-16 7.473-14 3.717-12 9.976-11
 MgCL            1.632-15 0.000  0 2.872-35 1.390-30 7.607-27 8.548-24 2.933-21 4.044-19
 MgCL2           6.845-10 2.532-29 8.995-25 3.027-21 1.961-18 3.838-16 3.065-14 1.229-12
 MgF             1.242-19 0.000  0 0.000  0 1.292-37 3.773-33 1.670-29 1.797-26 6.526-24
 MgF2            1.959-19 0.000  0 0.000  0 1.720-37 5.249-33 2.408-29 2.668-26 9.925-24
 MgH             9.513-20 0.000  0 0.000  0 1.078-35 1.017-31 1.794-28 9.010-26 1.725-23
 NH3             2.223-13 1.185-27 3.080-24 1.348-21 1.701-19 8.715-18 2.276-16 3.548-15
 SiBr            5.305-20 0.000  0 0.000  0 3.290-37 8.360-33 3.323-29 3.284-26 1.113-23
 SiBr2           6.461-19 0.000  0 0.000  0 1.648-34 2.328-30 5.672-27 3.702-24 8.774-22
 SiCL2           5.175-18 0.000  0 0.000  0 5.202-35 8.680-31 2.425-27 1.775-24 4.638-22
 SiFCL           2.951-19 0.000  0 0.000  0 2.005-37 6.561-33 3.180-29 3.683-26 1.419-23
 SiHBr3          1.596-19 0.000  0 9.671-37 3.148-32 1.243-28 1.062-25 2.880-23 3.239-21
 SiHCL           3.596-17 0.000  0 1.636-36 6.656-32 3.170-28 3.179-25 9.927-23 1.265-20
 SiHCL3          2.045-16 0.000  0 2.531-34 4.821-30 1.239-26 7.442-24 1.506-21 1.323-19
 SiHF            1.558-18 0.000  0 0.000  0 2.623-34 2.274-30 3.723-27 1.749-24 3.150-22
 SiHF3           7.560-17 0.000  0 1.118-35 3.544-31 1.366-27 1.142-24 3.044-22 3.371-20
 SiH2            5.112-17 0.000  0 1.787-33 1.556-29 2.166-26 7.970-24 1.083-21 6.848-20
 SiH2Br2         1.249-14 1.112-30 1.339-26 1.910-23 6.162-21 6.774-19 3.332-17 8.845-16
 SiH2CL2         1.702-12 1.051-28 7.583-25 7.253-22 1.698-19 1.436-17 5.673-16 1.252-14
 SiH2F2          9.203-13 9.890-30 1.080-25 1.424-22 4.302-20 4.477-18 2.102-16 5.363-15
 SiH3            1.274-14 1.830-30 1.101-26 9.231-24 1.962-21 1.544-19 5.785-18 1.228-16
 SiH3Br          3.452-10 3.117-19 6.691-17 4.151-15 1.089-13 1.536-12 1.367-11 8.551-11
 SiH3CL          3.157 -9 1.822-18 3.223-16 1.719-14 3.992-13 5.097-12 4.172-11 2.433-10
 SiH3F           2.152 -9 4.806-19 1.065-16 6.760-15 1.803-13 2.577-12 2.316-11 1.462-10
 SiH4            2.4532-6 1.8380-8 7.3331-8 2.0481-7 4.4977-7 8.3470-7 1.3720-6 2.0614-6
 SiO             1.015-19 0.000  0 0.000  0 7.541-38 2.351-33 1.107-29 1.262-26 4.838-24
 SiS             4.149-17 0.000  0 5.444-38 4.750-33 4.211-29 7.080-26 3.421-23 6.338-21
 MgBr2(cr)       0.0000 0 3.0495-9 3.0495-9 3.0495-9 3.0495-9 3.0495-9 3.0404-9 2.9283-9
 MgCL2(cr)       2.7770-6 2.7811-6 2.7811-6 2.7811-6 2.7811-6 2.7811-6 2.7810-6 2.7809-6
 MgF2(cr)        3.1839-7 3.1947-7 3.1947-7 3.1947-7 3.1947-7 3.1947-7 3.1946-7 3.1941-7
 MgO(cr)         7.0371-5 7.0360-5 7.0360-5 7.0360-5 7.0360-5 7.0360-5 7.0360-5 7.0361-5
 MgS(cr)         3.3091-4 3.3091-4 3.3091-4 3.3091-4 3.3091-4 3.3091-4 3.3091-4 3.3091-4
 Mg2SiO4(cr)     1.4808-4 1.4809-4 1.4809-4 1.4809-4 1.4809-4 1.4809-4 1.4809-4 1.4809-4
 Si(cr)          1.9314-5 2.1752-5 2.1697-5 2.1566-5 2.1321-5 2.0936-5 2.0399-5 1.9732-5
 Si2N2O(cr)      1.9978-4 1.9978-4 1.9978-4 1.9978-4 1.9978-4 1.9978-4 1.9978-4 1.9978-4

  * THERMODYNAMIC PROPERTIES FITTED TO 20000.K

    PRODUCTS WHICH WERE CONSIDERED BUT WHOSE MOLE FRACTIONS
    WERE LESS THAN 1.000000E-20 FOR ALL ASSIGNED CONDITIONS

 BrCL            BrF             BrF3            BrF5            BrO            
 OBrO            BrOO            BrO3            Br2             BrBrO          
 BrOBr           *CL             CLF             CLF3            CLF5           
 CLO             CLO2            CL2             CL2O            *F             
 FO              FO2,FOO         FO2,OFO         F2              F2O            
 F2O2            FS2F            HNO             HNO2            HNO3           
 HOCL            HOF             HO2             HSO3F           H2F2           
 H2O2            H2SO4           H3F3            H4F4            H5F5           
 H6F6            H7F7            MgN             *MgO            MgOH           
 Mg(OH)2         MgS             Mg2             Mg2F4           *N             
 NF              NF2             NF3             *NH             NHF            
 NHF2            NH2             NH2F            NH2OH           *NO            
 NOCL            NOF             NOF3            NO2             NO2CL          
 NO2F            NO3             NO3F            *N2             N2F2           
 N2F4            N2H2            NH2NO2          N2H4            N2O            
 N2O3            N2O4            N2O5            N3              N3H            
 *O              *OH             *O2             O3              *S             
 SCL             SCL2            SF              SF2             SF3            
 SF4             SF5             SF6             SH              SN             
 SO              SOF2            SO2             SO2CL2          SO2FCL         
 SO2F2           SO3             S2              S2CL2           S2F2           
 S2O             S3              S4              S5              S6             
 S7              S8              *Si             SiBr3           SiBr4          
 SiCL            SiCL3           SiCL4           SiF             SiF2           
 SiF3            SiF4            SiH             SiN             SiO2           
 SiS2            Si2             Si2F6           Si2N            Si3            
 Br2(cr)         Br2(L)          H2O(cr)         H2O(L)          H2SO4(L)       
 Mg(cr)          Mg(L)           MgBr2(L)        MgCL2(L)        MgF2(L)        
 MgH2(b)         MgH2(L)         MgO(L)          Mg(OH)2(cr)     Mg(OH)2(L)     
 MgS(L)          MgSO4(II)       MgSO4(I)        MgSO4(L)        MgSiO3(I)      
 MgSiO3(II)      MgSiO3(III)     MgSiO3(L)       Mg2SiO4(L)      Mg3N2(cr)      
 NH4CL(II)       NH4CL(III)      NH4F(cr)        NH4F(L)         S(a)           
 S(b)            S(L)            SCL2(L)         S2CL2(L)        Si(L)          
 SiO2(a-qz)      SiO2(b-qz)      SiO2(b-crt)     SiO2(L)         SiS(cr)        
 SiS(L)          SiS2(cr)        SiS2(L)         Si3N4(cr)      






 POINT ITN      T            H           HE          N           S 
                    O           F           MG          SI          CL
                    BR
   1    2     700.000      -6.635     -14.448     -39.864     -44.929
                 -85.516     -89.922     -22.517      -3.008     -50.750
                 -42.262
   2    1     750.000      -6.707     -14.550     -37.310     -42.358
                 -80.021     -84.249     -21.341      -3.122     -47.838
                 -40.031
 REMOVE  MgBr2(cr)      
   2    3     750.000      -6.707     -14.550     -37.310     -42.358
                 -80.021     -84.249     -21.341      -3.122     -47.838
                 -41.104
   3    2     350.000      -5.967     -13.381     -78.970     -84.374
                -168.696    -175.977     -41.332      -2.292     -95.478
                 -76.800
   4    2     400.000      -6.015     -13.449     -69.112     -74.416
                -147.823    -154.358     -36.493      -2.360     -84.179
                 -68.044
   5    2     450.000      -6.076     -13.536     -61.470     -66.703
                -131.613    -137.578     -32.776      -2.450     -75.431
                 -61.276
   6    2     500.000      -6.144     -13.634     -55.379     -60.561
                -118.667    -124.184     -29.840      -2.553     -68.465
                 -55.895
   7    2     550.000      -6.216     -13.737     -50.415     -55.557
                -108.093    -113.249     -27.469      -2.664     -62.792
                 -51.520
   8    2     600.000      -6.290     -13.841     -46.296     -51.406
                 -99.298    -104.158     -25.520      -2.777     -58.088
                 -47.898




               THERMODYNAMIC EQUILIBRIUM PROPERTIES AT ASSIGNED

                           TEMPERATURE AND PRESSURE

 CASE = saturn         

             REACTANT                       MOLES         ENERGY      TEMP
                                                         KJ/KG-MOL      K
 NAME        H2                           1.0000000         0.000      0.000
 NAME        He                           0.1350000         0.000      0.000
 NAME        N2                           0.0002270         0.000      0.000
 NAME        H2S                          0.0003760         0.000      0.000
 NAME        O2                           0.0004900         0.000      0.000
 NAME        HF                           0.0000007         0.000      0.000
 NAME        Mg                           0.0007960         0.000      0.000
 NAME        Si                           0.0006470         0.000      0.000
 NAME        HCL                          0.0000063         0.000      0.000
 NAME        HBr                          0.0000000         0.000      0.000

 O/F=    0.00000  %FUEL=  0.000000  R,EQ.RATIO=*********  PHI,EQ.RATIO= 0.000000

 THERMODYNAMIC PROPERTIES

 P, BAR            34.890   34.890   52.020   52.020   52.020   52.020   52.020   52.020
 T, K              700.00   750.00   350.00   400.00   450.00   500.00   550.00   600.00
 RHO, KG/CU M    1.3880 0 1.2955 0 4.1389 0 3.6216 0 3.2192 0 2.8973 0 2.6339 0 2.4144 0
 H, KJ/KG         4620.10  5235.97   338.10   947.24  1557.72  2168.82  2780.40  3392.61
 U, KJ/KG         2106.42  2542.75  -918.74  -489.15  -58.218   373.33   805.36  1238.03
 G, KJ/KG        -34018.7 -36800.1 -15512.8 -17818.7 -20201.1 -22651.5 -25163.1 -27730.5
 S, KJ/(KG)(K)    55.1982  56.0480  45.2882  46.9149  48.3529  49.6406  50.8064  51.8718

 M, (1/n)           2.315    2.315    2.315    2.315    2.315    2.315    2.315    2.315
 MW, MOL WT         2.314    2.314    2.314    2.314    2.314    2.314    2.314    2.314
 (dLV/dLP)t      -1.00000 -1.00000 -1.00000 -1.00000 -1.00000 -1.00000 -1.00000 -1.00000
 (dLV/dLT)p        1.0000   1.0000   1.0000   1.0000   1.0000   1.0000   1.0000   1.0000
 Cp, KJ/(KG)(K)   12.3014  12.3344  12.1596  12.2000  12.2170  12.2266  12.2371  12.2525
 GAMMAs            1.4122   1.4107   1.4191   1.4171   1.4163   1.4158   1.4153   1.4146
 SON VEL,M/SEC     1884.1   1949.2   1335.5   1426.7   1512.8   1594.4   1671.9   1745.8

 MOLE FRACTIONS

 *Br             1.587-19 2.013-18 0.000  0 2.033-37 8.108-33 3.863-29 3.926-26 1.253-23
 *H              4.016-15 5.027-14 1.457-31 1.734-27 2.591-24 9.050-22 1.097-19 6.013-18
 HBr             5.441-10 1.229 -9 1.417-22 1.984-19 5.461-17 4.820-15 1.862-13 3.872-12
 HCL             4.092-10 2.811 -9 6.076-23 9.759-20 2.992-17 2.882-15 1.197-13 2.644-12
 *HF             2.621-14 3.577-13 1.408-31 2.882-27 6.431-24 3.041-21 4.651-19 3.052-17
 *H2             8.8041-1 8.8041-1 8.8042-1 8.8042-1 8.8041-1 8.8041-1 8.8041-1 8.8041-1
 H2O             9.234-17 1.452-15 6.470-35 2.352-30 8.155-27 5.462-24 1.107-21 9.166-20
 H2S             9.844-15 1.059-13 2.014-30 1.789-26 2.061-23 5.699-21 5.594-19 2.529-17
 *He             1.1881-1 1.1881-1 1.1881-1 1.1881-1 1.1881-1 1.1881-1 1.1881-1 1.1881-1
 *Mg             5.880-15 1.138-13 1.439-34 1.079-29 6.603-26 6.992-23 2.069-20 2.354-18
 MgBr            1.556-17 2.062-16 0.000  0 8.881-36 4.548-31 2.604-27 3.034-24 1.072-21
 MgBr2           1.651 -9 2.169 -9 8.408-26 9.832-22 1.393-18 4.516-16 5.012-14 2.493-12
 MgCL            2.727-17 1.038-15 0.000  0 1.926-35 9.321-31 5.102-27 5.733-24 1.967-21
 MgCL2           2.871-11 4.355-10 1.698-29 6.033-25 2.031-21 1.315-18 2.574-16 2.056-14
 MgF             1.010-21 7.900-20 0.000  0 0.000  0 8.667-38 2.531-33 1.120-29 1.206-26
 MgF2            1.567-21 1.247-19 0.000  0 0.000  0 1.154-37 3.521-33 1.615-29 1.790-26
 MgH             1.548-21 7.589-20 0.000  0 0.000  0 8.831-36 8.329-32 1.469-28 7.379-26
 NH3             3.693-14 2.787-13 1.447-27 3.761-24 1.646-21 2.077-19 1.064-17 2.779-16
 SiBr            1.627-21 4.151-20 0.000  0 0.000  0 2.207-37 5.607-33 2.228-29 2.203-26
 SiBr2           9.387-20 6.216-19 0.000  0 0.000  0 1.105-34 1.561-30 3.804-27 2.483-24
 SiCL2           5.399-20 3.293-18 0.000  0 0.000  0 3.489-35 5.822-31 1.626-27 1.190-24
 SiFCL           2.306-21 1.877-19 0.000  0 0.000  0 1.345-37 4.401-33 2.133-29 2.470-26
 SiHBr3          1.825-19 2.367-19 0.000  0 7.920-37 2.578-32 1.018-28 8.693-26 2.359-23
 SiHCL           7.978-19 2.868-17 0.000  0 1.340-36 5.451-32 2.596-28 2.603-25 8.130-23
 SiHCL3          6.034-18 1.631-16 0.000  0 2.073-34 3.948-30 1.015-26 6.095-24 1.234-21
 SiHF            2.673-20 1.243-18 0.000  0 0.000  0 2.148-34 1.862-30 3.049-27 1.433-24
 SiHF3           1.876-18 6.030-17 0.000  0 9.153-36 2.902-31 1.119-27 9.356-25 2.493-22
 SiH2            2.377-18 5.112-17 0.000  0 1.787-33 1.556-29 2.166-26 7.970-24 1.083-21
 SiH2Br2         1.449-14 1.888-14 1.112-30 1.339-26 1.910-23 6.162-21 6.774-19 3.332-17
 SiH2CL2         1.750-13 1.702-12 1.051-28 7.583-25 7.253-22 1.698-19 1.436-17 5.673-16
 SiH2F2          8.496-14 9.203-13 9.890-30 1.080-25 1.424-22 4.302-20 4.477-18 2.102-16
 SiH3            1.672-15 1.597-14 2.235-30 1.344-26 1.127-23 2.396-21 1.885-19 7.064-18
 SiH3Br          4.068-10 5.321-10 3.806-19 8.170-17 5.069-15 1.330-13 1.876-12 1.669-11
 SiH3CL          1.090 -9 3.958 -9 2.225-18 3.936-16 2.099-14 4.875-13 6.224-12 5.094-11
 SiH3F           7.004-10 2.698 -9 5.869-19 1.300-16 8.254-15 2.202-13 3.147-12 2.828-11
 SiH4            2.8939-6 3.8555-6 2.7405-8 1.0933-7 3.0537-7 6.7059-7 1.2445-6 2.0456-6
 SiO             7.873-22 6.457-20 0.000  0 0.000  0 5.058-38 1.577-33 7.422-30 8.466-27
 SiS             5.528-19 2.640-17 0.000  0 0.000  0 3.186-33 2.824-29 4.748-26 2.295-23
 MgBr2(cr)       1.2937-9 0.0000 0 3.0495-9 3.0495-9 3.0495-9 3.0495-9 3.0495-9 3.0412-9
 MgCL2(cr)       2.7804-6 2.7773-6 2.7811-6 2.7811-6 2.7811-6 2.7811-6 2.7811-6 2.7810-6
 MgF2(cr)        3.1915-7 3.1812-7 3.1947-7 3.1947-7 3.1947-7 3.1947-7 3.1947-7 3.1946-7
 MgO(cr)         7.0363-5 7.0372-5 7.0360-5 7.0360-5 7.0360-5 7.0360-5 7.0360-5 7.0360-5
 MgS(cr)         3.3091-4 3.3091-4 3.3091-4 3.3091-4 3.3091-4 3.3091-4 3.3091-4 3.3091-4
 Mg2SiO4(cr)     1.4809-4 1.4808-4 1.4809-4 1.4809-4 1.4809-4 1.4809-4 1.4809-4 1.4809-4
 Si(cr)          1.8888-5 1.7911-5 2.1743-5 2.1661-5 2.1465-5 2.1100-5 2.0526-5 1.9725-5
 Si2N2O(cr)      1.9978-4 1.9978-4 1.9978-4 1.9978-4 1.9978-4 1.9978-4 1.9978-4 1.9978-4

  * THERMODYNAMIC PROPERTIES FITTED TO 20000.K

    PRODUCTS WHICH WERE CONSIDERED BUT WHOSE MOLE FRACTIONS
    WERE LESS THAN 1.000000E-20 FOR ALL ASSIGNED CONDITIONS

 BrCL            BrF             BrF3            BrF5            BrO            
 OBrO            BrOO            BrO3            Br2             BrBrO          
 BrOBr           *CL             CLF             CLF3            CLF5           
 CLO             CLO2            CL2             CL2O            *F             
 FO              FO2,FOO         FO2,OFO         F2              F2O            
 F2O2            FS2F            HNO             HNO2            HNO3           
 HOCL            HOF             HO2             HSO3F           H2F2           
 H2O2            H2SO4           H3F3            H4F4            H5F5           
 H6F6            H7F7            MgN             *MgO            MgOH           
 Mg(OH)2         MgS             Mg2             Mg2F4           *N             
 NF              NF2             NF3             *NH             NHF            
 NHF2            NH2             NH2F            NH2OH           *NO            
 NOCL            NOF             NOF3            NO2             NO2CL          
 NO2F            NO3             NO3F            *N2             N2F2           
 N2F4            N2H2            NH2NO2          N2H4            N2O            
 N2O3            N2O4            N2O5            N3              N3H            
 *O              *OH             *O2             O3              *S             
 SCL             SCL2            SF              SF2             SF3            
 SF4             SF5             SF6             SH              SN             
 SO              SOF2            SO2             SO2CL2          SO2FCL         
 SO2F2           SO3             S2              S2CL2           S2F2           
 S2O             S3              S4              S5              S6             
 S7              S8              *Si             SiBr3           SiBr4          
 SiCL            SiCL3           SiCL4           SiF             SiF2           
 SiF3            SiF4            SiH             SiN             SiO2           
 SiS2            Si2             Si2F6           Si2N            Si3            
 Br2(cr)         Br2(L)          H2O(cr)         H2O(L)          H2SO4(L)       
 Mg(cr)          Mg(L)           MgBr2(L)        MgCL2(L)        MgF2(L)        
 MgH2(b)         MgH2(L)         MgO(L)          Mg(OH)2(cr)     Mg(OH)2(L)     
 MgS(L)          MgSO4(II)       MgSO4(I)        MgSO4(L)        MgSiO3(I)      
 MgSiO3(II)      MgSiO3(III)     MgSiO3(L)       Mg2SiO4(L)      Mg3N2(cr)      
 NH4CL(II)       NH4CL(III)      NH4F(cr)        NH4F(L)         S(a)           
 S(b)            S(L)            SCL2(L)         S2CL2(L)        Si(L)          
 SiO2(a-qz)      SiO2(b-qz)      SiO2(b-crt)     SiO2(L)         SiS(cr)        
 SiS(L)          SiS2(cr)        SiS2(L)         Si3N4(cr)      






 POINT ITN      T            H           HE          N           S 
                    O           F           MG          SI          CL
                    BR
   1    2     650.000      -6.363     -13.946     -42.826     -47.911
                 -91.870     -96.484     -23.893      -2.892     -54.128
                 -44.853
   2    2     700.000      -6.436     -14.049     -39.864     -44.929
                 -85.516     -89.922     -22.517      -3.008     -50.750
                 -42.262
   3    1     750.000      -6.507     -14.151     -37.310     -42.358
                 -80.021     -84.249     -21.341      -3.122     -47.838
                 -40.031
 REMOVE  MgBr2(cr)      
   3    2     750.000      -6.507     -14.151     -37.310     -42.358
                 -80.021     -84.249     -21.341      -3.122     -47.838
                 -40.928
   4    2     350.000      -5.788     -13.023     -78.970     -84.374
                -168.696    -175.977     -41.332      -2.292     -95.478
                 -76.800
   5    2     400.000      -5.836     -13.091     -69.112     -74.416
                -147.823    -154.358     -36.493      -2.360     -84.179
                 -68.044
   6    2     450.000      -5.897     -13.178     -61.470     -66.703
                -131.613    -137.578     -32.776      -2.450     -75.431
                 -61.276
   7    2     500.000      -5.965     -13.276     -55.379     -60.561
                -118.667    -124.184     -29.840      -2.553     -68.465
                 -55.895
   8    2     550.000      -6.037     -13.379     -50.415     -55.557
                -108.093    -113.249     -27.469      -2.664     -62.792
                 -51.520




               THERMODYNAMIC EQUILIBRIUM PROPERTIES AT ASSIGNED

                           TEMPERATURE AND PRESSURE

 CASE = saturn         

             REACTANT                       MOLES         ENERGY      TEMP
                                                         KJ/KG-MOL      K
 NAME        H2                           1.0000000         0.000      0.000
 NAME        He                           0.1350000         0.000      0.000
 NAME        N2                           0.0002270         0.000      0.000
 NAME        H2S                          0.0003760         0.000      0.000
 NAME        O2                           0.0004900         0.000      0.000
 NAME        HF                           0.0000007         0.000      0.000
 NAME        Mg                           0.0007960         0.000      0.000
 NAME        Si                           0.0006470         0.000      0.000
 NAME        HCL                          0.0000063         0.000      0.000
 NAME        HBr                          0.0000000         0.000      0.000

 O/F=    0.00000  %FUEL=  0.000000  R,EQ.RATIO=*********  PHI,EQ.RATIO= 0.000000

 THERMODYNAMIC PROPERTIES

 P, BAR            52.020   52.020   52.020   74.410   74.410   74.410   74.410   74.410
 T, K              650.00   700.00   750.00   350.00   400.00   450.00   500.00   550.00
 RHO, KG/CU M    2.2287 0 2.0695 0 1.9315 0 5.9204 0 5.1803 0 4.6048 0 4.1443 0 3.7675 0
 H, KJ/KG         4005.75  4620.11  5235.99   338.10   947.24  1557.72  2168.82  2780.40
 U, KJ/KG         1671.63  2106.44  2542.78  -918.74  -489.15  -58.216   373.34   805.37
 G, KJ/KG        -30348.9 -33014.6 -35724.3 -15062.9 -17304.5 -19622.7 -22008.8 -24456.2
 S, KJ/(KG)(K)    52.8534  53.7639  54.6137  44.0027  45.6294  47.0675  48.3552  49.5210

 M, (1/n)           2.315    2.315    2.315    2.315    2.315    2.315    2.315    2.315
 MW, MOL WT         2.314    2.314    2.314    2.314    2.314    2.314    2.314    2.314
 (dLV/dLP)t      -1.00000 -1.00000 -1.00001 -1.00000 -1.00000 -1.00000 -1.00000 -1.00000
 (dLV/dLT)p        1.0000   1.0000   1.0000   1.0000   1.0000   1.0000   1.0000   1.0000
 Cp, KJ/(KG)(K)   12.2740  12.3015  12.3345  12.1596  12.2001  12.2170  12.2266  12.2372
 GAMMAs            1.4135   1.4122   1.4107   1.4191   1.4171   1.4163   1.4158   1.4153
 SON VEL,M/SEC     1816.4   1884.1   1949.2   1335.5   1426.7   1512.8   1594.4   1671.9

 MOLE FRACTIONS

 *Br             1.639-21 1.065-19 1.610-18 0.000  0 1.422-37 5.668-33 2.701-29 2.745-26
 *H              1.788-16 3.289-15 4.117-14 1.218-31 1.450-27 2.167-24 7.567-22 9.174-20
 HBr             5.006-11 4.456-10 1.200 -9 1.185-22 1.659-19 4.566-17 4.030-15 1.557-13
 HCL             3.600-11 3.351-10 2.302 -9 5.080-23 8.159-20 2.502-17 2.410-15 1.000-13
 *HF             1.045-15 2.146-14 2.929-13 1.177-31 2.410-27 5.378-24 2.542-21 3.889-19
 *H2             8.8041-1 8.8041-1 8.8041-1 8.8042-1 8.8042-1 8.8041-1 8.8041-1 8.8041-1
 H2O             3.812-18 9.234-17 1.452-15 6.470-35 2.352-30 8.155-27 5.462-24 1.107-21
 H2S             6.301-16 9.844-15 1.059-13 2.014-30 1.789-26 2.061-23 5.699-21 5.594-19
 *He             1.1881-1 1.1881-1 1.1881-1 1.1881-1 1.1881-1 1.1881-1 1.1881-1 1.1881-1
 *Mg             1.286-16 3.944-15 7.631-14 1.006-34 7.547-30 4.616-26 4.888-23 1.446-20
 MgBr            1.516-19 1.044-17 1.649-16 0.000  0 6.208-36 3.179-31 1.820-27 2.121-24
 MgBr2           6.691-11 1.107 -9 2.069 -9 5.878-26 6.873-22 9.742-19 3.157-16 3.504-14
 MgCL            2.713-19 1.829-17 6.964-16 0.000  0 1.347-35 6.517-31 3.567-27 4.008-24
 MgCL2           8.244-13 1.926-11 2.921-10 1.187-29 4.218-25 1.420-21 9.196-19 1.800-16
 MgF             4.377-24 6.772-22 5.298-20 0.000  0 0.000  0 6.059-38 1.769-33 7.831-30
 MgF2            6.657-24 1.051-21 8.361-20 0.000  0 0.000  0 8.066-38 2.461-33 1.129-29
 MgH             1.412-23 1.268-21 6.215-20 0.000  0 0.000  0 7.384-36 6.964-32 1.228-28
 NH3             4.332-15 4.510-14 3.403-13 1.730-27 4.498-24 1.969-21 2.484-19 1.273-17
 SiBr            7.465-24 1.091-21 3.320-20 0.000  0 0.000  0 1.543-37 3.920-33 1.558-29
 SiBr2           5.885-22 6.296-20 5.929-19 0.000  0 0.000  0 7.727-35 1.092-30 2.660-27
 SiCL2           3.111-22 3.621-20 2.208-18 0.000  0 0.000  0 2.439-35 4.070-31 1.137-27
 SiFCL           9.521-24 1.547-21 1.259-19 0.000  0 0.000  0 9.401-38 3.077-33 1.491-29
 SiHBr3          2.652-21 1.495-19 3.287-19 0.000  0 6.622-37 2.156-32 8.512-29 7.269-26
 SiHCL           1.036-20 6.533-19 2.349-17 0.000  0 1.120-36 4.557-32 2.170-28 2.177-25
 SiHCL3          1.083-19 4.942-18 1.336-16 0.000  0 1.733-34 3.301-30 8.483-27 5.096-24
 SiHF            2.580-22 2.189-20 1.018-18 0.000  0 0.000  0 1.796-34 1.557-30 2.550-27
 SiHF3           2.761-20 1.537-18 4.938-17 0.000  0 7.653-36 2.427-31 9.357-28 7.823-25
 SiH2            6.848-20 2.377-18 5.112-17 0.000  0 1.787-33 1.556-29 2.166-26 7.970-24
 SiH2Br2         8.845-16 1.449-14 2.685-14 1.112-30 1.339-26 1.910-23 6.162-21 6.774-19
 SiH2CL2         1.252-14 1.750-13 1.702-12 1.051-28 7.583-25 7.253-22 1.698-19 1.436-17
 SiH2F2          5.363-15 8.496-14 9.203-13 9.890-30 1.080-25 1.424-22 4.302-20 4.477-18
 SiH3            1.500-16 2.041-15 1.950-14 2.673-30 1.607-26 1.348-23 2.866-21 2.255-19
 SiH3Br          1.044-10 4.967-10 7.748-10 4.552-19 9.772-17 6.062-15 1.590-13 2.244-12
 SiH3CL          2.971-10 1.331 -9 4.833 -9 2.661-18 4.707-16 2.510-14 5.830-13 7.444-12
 SiH3F           1.785-10 8.552-10 3.294 -9 7.019-19 1.555-16 9.871-15 2.634-13 3.764-12
 SiH4            3.0735-6 4.3147-6 5.7484-6 3.9200-8 1.5639-7 4.3680-7 9.5922-7 1.7802-6
 SiO             3.245-24 5.281-22 4.331-20 0.000  0 0.000  0 0.000  0 1.102-33 5.189-30
 SiS             4.251-21 3.708-19 1.770-17 0.000  0 0.000  0 2.227-33 1.975-29 3.320-26
 MgBr2(cr)       2.9222-9 1.7333-9 0.0000 0 3.0495-9 3.0495-9 3.0495-9 3.0495-9 3.0495-9
 MgCL2(cr)       2.7809-6 2.7803-6 2.7772-6 2.7811-6 2.7811-6 2.7811-6 2.7811-6 2.7811-6
 MgF2(cr)        3.1939-7 3.1908-7 3.1783-7 3.1947-7 3.1947-7 3.1947-7 3.1947-7 3.1947-7
 MgO(cr)         7.0361-5 7.0364-5 7.0373-5 7.0360-5 7.0360-5 7.0360-5 7.0360-5 7.0360-5
 MgS(cr)         3.3091-4 3.3091-4 3.3091-4 3.3091-4 3.3091-4 3.3091-4 3.3091-4 3.3091-4
 Mg2SiO4(cr)     1.4809-4 1.4809-4 1.4808-4 1.4809-4 1.4809-4 1.4809-4 1.4809-4 1.4809-4
 Si(cr)          1.8708-5 1.7473-5 1.6016-5 2.1731-5 2.1614-5 2.1334-5 2.0811-5 1.9990-5
 Si2N2O(cr)      1.9978-4 1.9978-4 1.9978-4 1.9978-4 1.9978-4 1.9978-4 1.9978-4 1.9978-4

  * THERMODYNAMIC PROPERTIES FITTED TO 20000.K

    PRODUCTS WHICH WERE CONSIDERED BUT WHOSE MOLE FRACTIONS
    WERE LESS THAN 1.000000E-20 FOR ALL ASSIGNED CONDITIONS

 BrCL            BrF             BrF3            BrF5            BrO            
 OBrO            BrOO            BrO3            Br2             BrBrO          
 BrOBr           *CL             CLF             CLF3            CLF5           
 CLO             CLO2            CL2             CL2O            *F             
 FO              FO2,FOO         FO2,OFO         F2              F2O            
 F2O2            FS2F            HNO             HNO2            HNO3           
 HOCL            HOF             HO2             HSO3F           H2F2           
 H2O2            H2SO4           H3F3            H4F4            H5F5           
 H6F6            H7F7            MgN             *MgO            MgOH           
 Mg(OH)2         MgS             Mg2             Mg2F4           *N             
 NF              NF2             NF3             *NH             NHF            
 NHF2            NH2             NH2F            NH2OH           *NO            
 NOCL            NOF             NOF3            NO2             NO2CL          
 NO2F            NO3             NO3F            *N2             N2F2           
 N2F4            N2H2            NH2NO2          N2H4            N2O            
 N2O3            N2O4            N2O5            N3              N3H            
 *O              *OH             *O2             O3              *S             
 SCL             SCL2            SF              SF2             SF3            
 SF4             SF5             SF6             SH              SN             
 SO              SOF2            SO2             SO2CL2          SO2FCL         
 SO2F2           SO3             S2              S2CL2           S2F2           
 S2O             S3              S4              S5              S6             
 S7              S8              *Si             SiBr3           SiBr4          
 SiCL            SiCL3           SiCL4           SiF             SiF2           
 SiF3            SiF4            SiH             SiN             SiO2           
 SiS2            Si2             Si2F6           Si2N            Si3            
 Br2(cr)         Br2(L)          H2O(cr)         H2O(L)          H2SO4(L)       
 Mg(cr)          Mg(L)           MgBr2(L)        MgCL2(L)        MgF2(L)        
 MgH2(b)         MgH2(L)         MgO(L)          Mg(OH)2(cr)     Mg(OH)2(L)     
 MgS(L)          MgSO4(II)       MgSO4(I)        MgSO4(L)        MgSiO3(I)      
 MgSiO3(II)      MgSiO3(III)     MgSiO3(L)       Mg2SiO4(L)      Mg3N2(cr)      
 NH4CL(II)       NH4CL(III)      NH4F(cr)        NH4F(L)         S(a)           
 S(b)            S(L)            SCL2(L)         S2CL2(L)        Si(L)          
 SiO2(a-qz)      SiO2(b-qz)      SiO2(b-crt)     SiO2(L)         SiS(cr)        
 SiS(L)          SiS2(cr)        SiS2(L)         Si3N4(cr)      






 POINT ITN      T            H           HE          N           S 
                    O           F           MG          SI          CL
                    BR
   1    2     600.000      -6.111     -13.483     -46.296     -51.406
                 -99.298    -104.158     -25.520      -2.777     -58.088
                 -47.898
   2    2     650.000      -6.184     -13.588     -42.826     -47.911
                 -91.870     -96.484     -23.893      -2.892     -54.128
                 -44.853
   3    2     700.000      -6.257     -13.691     -39.864     -44.929
                 -85.516     -89.922     -22.517      -3.008     -50.750
                 -42.262
   4    1     750.000      -6.328     -13.793     -37.310     -42.358
                 -80.021     -84.249     -21.341      -3.122     -47.838
                 -40.031
 REMOVE  MgBr2(cr)      
   4    2     750.000      -6.328     -13.793     -37.310     -42.358
                 -80.021     -84.249     -21.341      -3.122     -47.838
                 -40.783
   5    2     350.000      -5.626     -12.699     -78.970     -84.374
                -168.696    -175.977     -41.332      -2.292     -95.478
                 -76.800
   6    2     400.000      -5.674     -12.767     -69.112     -74.416
                -147.823    -154.358     -36.493      -2.360     -84.179
                 -68.044
   7    2     450.000      -5.735     -12.854     -61.470     -66.703
                -131.613    -137.578     -32.776      -2.450     -75.431
                 -61.276
   8    2     500.000      -5.803     -12.952     -55.379     -60.561
                -118.667    -124.184     -29.840      -2.553     -68.465
                 -55.895




               THERMODYNAMIC EQUILIBRIUM PROPERTIES AT ASSIGNED

                           TEMPERATURE AND PRESSURE

 CASE = saturn         

             REACTANT                       MOLES         ENERGY      TEMP
                                                         KJ/KG-MOL      K
 NAME        H2                           1.0000000         0.000      0.000
 NAME        He                           0.1350000         0.000      0.000
 NAME        N2                           0.0002270         0.000      0.000
 NAME        H2S                          0.0003760         0.000      0.000
 NAME        O2                           0.0004900         0.000      0.000
 NAME        HF                           0.0000007         0.000      0.000
 NAME        Mg                           0.0007960         0.000      0.000
 NAME        Si                           0.0006470         0.000      0.000
 NAME        HCL                          0.0000063         0.000      0.000
 NAME        HBr                          0.0000000         0.000      0.000

 O/F=    0.00000  %FUEL=  0.000000  R,EQ.RATIO=*********  PHI,EQ.RATIO= 0.000000

 THERMODYNAMIC PROPERTIES

 P, BAR            74.410   74.410   74.410   74.410   102.88   102.88   102.88   102.88
 T, K              600.00   650.00   700.00   750.00   350.00   400.00   450.00   500.00
 RHO, KG/CU M    3.4536 0 3.1879 0 2.9602 0 2.7629 0 8.1856 0 7.1624 0 6.3666 0 5.7299 0
 H, KJ/KG         3392.62  4005.77  4620.14  5236.02   338.10   947.24  1557.72  2168.83
 U, KJ/KG         1238.05  1671.64  2106.47  2542.81  -918.74  -489.15  -58.214   373.34
 G, KJ/KG        -26959.2 -29513.4 -32114.8 -34760.2 -14655.7 -16839.2 -19099.1 -21427.1
 S, KJ/(KG)(K)    50.5864  51.5679  52.4785  53.3283  42.8393  44.4661  45.9041  47.1919

 M, (1/n)           2.315    2.315    2.315    2.315    2.315    2.315    2.315    2.315
 MW, MOL WT         2.314    2.314    2.314    2.314    2.314    2.314    2.314    2.314
 (dLV/dLP)t      -1.00000 -1.00000 -1.00001 -1.00001 -1.00000 -1.00000 -1.00000 -1.00000
 (dLV/dLT)p        1.0000   1.0000   1.0000   1.0000   1.0000   1.0000   1.0000   1.0000
 Cp, KJ/(KG)(K)   12.2526  12.2741  12.3016  12.3347  12.1596  12.2001  12.2171  12.2267
 GAMMAs            1.4146   1.4135   1.4122   1.4106   1.4191   1.4171   1.4163   1.4158
 SON VEL,M/SEC     1745.8   1816.4   1884.1   1949.1   1335.5   1426.7   1512.8   1594.4

 MOLE FRACTIONS

 *Br             8.757-24 1.146-21 7.443-20 1.302-18 0.000  0 1.028-37 4.100-33 1.953-29
 *H              5.028-18 1.495-16 2.750-15 3.443-14 1.036-31 1.233-27 1.843-24 6.435-22
 HBr             3.238-12 4.186-11 3.726-10 1.161 -9 1.007-22 1.411-19 3.883-17 3.427-15
 HCL             2.211-12 3.010-11 2.802-10 1.925 -9 4.321-23 6.939-20 2.128-17 2.049-15
 *HF             2.552-17 8.738-16 1.795-14 2.449-13 1.001-31 2.049-27 4.573-24 2.162-21
 *H2             8.8041-1 8.8041-1 8.8041-1 8.8041-1 8.8042-1 8.8041-1 8.8041-1 8.8041-1
 H2O             9.166-20 3.812-18 9.234-17 1.452-15 6.470-35 2.352-30 8.155-27 5.462-24
 H2S             2.529-17 6.301-16 9.844-15 1.059-13 2.014-30 1.789-26 2.061-23 5.699-21
 *He             1.1881-1 1.1881-1 1.1881-1 1.1881-1 1.1881-1 1.1881-1 1.1881-1 1.1881-1
 *Mg             1.646-18 8.988-17 2.757-15 5.335-14 7.279-35 5.458-30 3.339-26 3.535-23
 MgBr            7.496-22 1.060-19 7.296-18 1.333-16 0.000  0 4.490-36 2.300-31 1.316-27
 MgBr2           1.743-12 4.678-11 7.739-10 1.934 -9 4.252-26 4.971-22 7.046-19 2.284-16
 MgCL            1.375-21 1.896-19 1.279-17 4.869-16 0.000  0 9.740-36 4.713-31 2.580-27
 MgCL2           1.437-14 5.763-13 1.346-11 2.042-10 8.586-30 3.051-25 1.027-21 6.651-19
 MgF             8.428-27 3.060-24 4.734-22 3.704-20 0.000  0 0.000  0 4.382-38 1.280-33
 MgF2            1.251-26 4.654-24 7.346-22 5.845-20 0.000  0 0.000  0 5.834-38 1.780-33
 MgH             6.170-26 1.181-23 1.060-21 5.196-20 0.000  0 0.000  0 6.280-36 5.922-32
 NH3             3.324-16 5.181-15 5.393-14 4.070-13 2.034-27 5.289-24 2.315-21 2.921-19
 SiBr            1.540-26 5.219-24 7.629-22 2.684-20 0.000  0 0.000  0 1.116-37 2.835-33
 SiBr2           1.736-24 4.114-22 4.402-20 5.543-19 0.000  0 0.000  0 5.588-35 7.895-31
 SiCL2           8.321-25 2.175-22 2.532-20 1.544-18 0.000  0 0.000  0 1.764-35 2.944-31
 SiFCL           1.727-26 6.656-24 1.081-21 8.803-20 0.000  0 0.000  0 6.800-38 2.225-33
 SiHBr3          1.972-23 2.218-21 1.250-19 4.251-19 0.000  0 5.632-37 1.833-32 7.239-29
 SiHCL           6.798-23 8.662-21 5.463-19 1.964-17 0.000  0 9.529-37 3.876-32 1.846-28
 SiHCL3          1.032-21 9.058-20 4.132-18 1.117-16 0.000  0 1.474-34 2.808-30 7.214-27
 SiHF            1.198-24 2.157-22 1.830-20 8.511-19 0.000  0 0.000  0 1.527-34 1.324-30
 SiHF3           2.084-22 2.308-20 1.285-18 4.129-17 0.000  0 6.508-36 2.064-31 7.957-28
 SiH2            1.083-21 6.848-20 2.377-18 5.112-17 0.000  0 1.787-33 1.556-29 2.166-26
 SiH2Br2         3.332-17 8.845-16 1.449-14 3.590-14 1.112-30 1.339-26 1.910-23 6.162-21
 SiH2CL2         5.673-16 1.252-14 1.750-13 1.702-12 1.051-28 7.583-25 7.253-22 1.698-19
 SiH2F2          2.102-16 5.363-15 8.496-14 9.203-13 9.890-30 1.080-25 1.424-22 4.302-20
 SiH3            8.449-18 1.794-16 2.442-15 2.332-14 3.143-30 1.890-26 1.585-23 3.369-21
 SiH3Br          1.996-11 1.249-10 5.940-10 1.072 -9 5.352-19 1.149-16 7.128-15 1.870-13
 SiH3CL          6.093-11 3.553-10 1.591 -9 5.780 -9 3.129-18 5.535-16 2.951-14 6.855-13
 SiH3F           3.382-11 2.135-10 1.023 -9 3.939 -9 8.253-19 1.829-16 1.161-14 3.097-13
 SiH4            2.9261-6 4.3964-6 6.1718-6 8.2226-6 5.4198-8 2.1623-7 6.0393-7 1.3262-6
 SiO             5.918-27 2.269-24 3.692-22 3.028-20 0.000  0 0.000  0 0.000  0 7.972-34
 SiS             1.604-23 2.972-21 2.592-19 1.238-17 0.000  0 0.000  0 1.611-33 1.428-29
 MgBr2(cr)       3.0397-9 2.9194-9 1.9886-9 0.0000 0 3.0495-9 3.0495-9 3.0495-9 3.0495-9
 MgCL2(cr)       2.7810-6 2.7809-6 2.7802-6 2.7770-6 2.7811-6 2.7811-6 2.7811-6 2.7811-6
 MgF2(cr)        3.1945-7 3.1937-7 3.1900-7 3.1750-7 3.1947-7 3.1947-7 3.1947-7 3.1947-7
 MgO(cr)         7.0360-5 7.0361-5 7.0364-5 7.0375-5 7.0360-5 7.0360-5 7.0360-5 7.0360-5
 MgS(cr)         3.3091-4 3.3091-4 3.3091-4 3.3092-4 3.3091-4 3.3091-4 3.3091-4 3.3091-4
 Mg2SiO4(cr)     1.4809-4 1.4809-4 1.4809-4 1.4808-4 1.4809-4 1.4809-4 1.4809-4 1.4809-4
 Si(cr)          1.8847-5 1.7374-5 1.5624-5 1.3541-5 2.1716-5 2.1554-5 2.1166-5 2.0444-5
 Si2N2O(cr)      1.9978-4 1.9978-4 1.9978-4 1.9978-4 1.9978-4 1.9978-4 1.9978-4 1.9978-4

  * THERMODYNAMIC PROPERTIES FITTED TO 20000.K

    PRODUCTS WHICH WERE CONSIDERED BUT WHOSE MOLE FRACTIONS
    WERE LESS THAN 1.000000E-20 FOR ALL ASSIGNED CONDITIONS

 BrCL            BrF             BrF3            BrF5            BrO            
 OBrO            BrOO            BrO3            Br2             BrBrO          
 BrOBr           *CL             CLF             CLF3            CLF5           
 CLO             CLO2            CL2             CL2O            *F             
 FO              FO2,FOO         FO2,OFO         F2              F2O            
 F2O2            FS2F            HNO             HNO2            HNO3           
 HOCL            HOF             HO2             HSO3F           H2F2           
 H2O2            H2SO4           H3F3            H4F4            H5F5           
 H6F6            H7F7            MgN             *MgO            MgOH           
 Mg(OH)2         MgS             Mg2             Mg2F4           *N             
 NF              NF2             NF3             *NH             NHF            
 NHF2            NH2             NH2F            NH2OH           *NO            
 NOCL            NOF             NOF3            NO2             NO2CL          
 NO2F            NO3             NO3F            *N2             N2F2           
 N2F4            N2H2            NH2NO2          N2H4            N2O            
 N2O3            N2O4            N2O5            N3              N3H            
 *O              *OH             *O2             O3              *S             
 SCL             SCL2            SF              SF2             SF3            
 SF4             SF5             SF6             SH              SN             
 SO              SOF2            SO2             SO2CL2          SO2FCL         
 SO2F2           SO3             S2              S2CL2           S2F2           
 S2O             S3              S4              S5              S6             
 S7              S8              *Si             SiBr3           SiBr4          
 SiCL            SiCL3           SiCL4           SiF             SiF2           
 SiF3            SiF4            SiH             SiN             SiO2           
 SiS2            Si2             Si2F6           Si2N            Si3            
 Br2(cr)         Br2(L)          H2O(cr)         H2O(L)          H2SO4(L)       
 Mg(cr)          Mg(L)           MgBr2(L)        MgCL2(L)        MgF2(L)        
 MgH2(b)         MgH2(L)         MgO(L)          Mg(OH)2(cr)     Mg(OH)2(L)     
 MgS(L)          MgSO4(II)       MgSO4(I)        MgSO4(L)        MgSiO3(I)      
 MgSiO3(II)      MgSiO3(III)     MgSiO3(L)       Mg2SiO4(L)      Mg3N2(cr)      
 NH4CL(II)       NH4CL(III)      NH4F(cr)        NH4F(L)         S(a)           
 S(b)            S(L)            SCL2(L)         S2CL2(L)        Si(L)          
 SiO2(a-qz)      SiO2(b-qz)      SiO2(b-crt)     SiO2(L)         SiS(cr)        
 SiS(L)          SiS2(cr)        SiS2(L)         Si3N4(cr)      






 POINT ITN      T            H           HE          N           S 
                    O           F           MG          SI          CL
                    BR
   1    2     550.000      -5.875     -13.055     -50.415     -55.557
                -108.093    -113.249     -27.469      -2.664     -62.792
                 -51.520
   2    2     600.000      -5.949     -13.159     -46.296     -51.406
                 -99.298    -104.158     -25.520      -2.777     -58.088
                 -47.898
   3    2     650.000      -6.022     -13.264     -42.826     -47.911
                 -91.870     -96.484     -23.893      -2.892     -54.128
                 -44.853
   4    2     700.000      -6.095     -13.367     -39.864     -44.929
                 -85.516     -89.922     -22.517      -3.008     -50.750
                 -42.262
   5    2     750.000      -6.166     -13.469     -37.310     -42.358
                 -80.021     -84.249     -21.341      -3.122     -47.838
                 -40.031
 REMOVE  MgBr2(cr)      
   5    3     750.000      -6.166     -13.469     -37.310     -42.358
                 -80.021     -84.249     -21.341      -3.122     -47.838
                 -40.662
   6    2     350.000      -5.478     -12.403     -78.970     -84.374
                -168.696    -175.977     -41.332      -2.292     -95.478
                 -76.800
   7    2     400.000      -5.526     -12.471     -69.112     -74.416
                -147.823    -154.358     -36.493      -2.360     -84.179
                 -68.044
   8    2     450.000      -5.587     -12.558     -61.470     -66.703
                -131.613    -137.578     -32.776      -2.450     -75.431
                 -61.276




               THERMODYNAMIC EQUILIBRIUM PROPERTIES AT ASSIGNED

                           TEMPERATURE AND PRESSURE

 CASE = saturn         

             REACTANT                       MOLES         ENERGY      TEMP
                                                         KJ/KG-MOL      K
 NAME        H2                           1.0000000         0.000      0.000
 NAME        He                           0.1350000         0.000      0.000
 NAME        N2                           0.0002270         0.000      0.000
 NAME        H2S                          0.0003760         0.000      0.000
 NAME        O2                           0.0004900         0.000      0.000
 NAME        HF                           0.0000007         0.000      0.000
 NAME        Mg                           0.0007960         0.000      0.000
 NAME        Si                           0.0006470         0.000      0.000
 NAME        HCL                          0.0000063         0.000      0.000
 NAME        HBr                          0.0000000         0.000      0.000

 O/F=    0.00000  %FUEL=  0.000000  R,EQ.RATIO=*********  PHI,EQ.RATIO= 0.000000

 THERMODYNAMIC PROPERTIES

 P, BAR            102.88   102.88   102.88   102.88   102.88   138.33   138.33   138.33
 T, K              550.00   600.00   650.00   700.00   750.00   350.00   400.00   450.00
 RHO, KG/CU M    5.2090 0 4.7750 0 4.4077 0 4.0928 0 3.8200 0 1.1006 1 9.6304 0 8.5604 0
 H, KJ/KG         2780.41  3392.64  4005.79  4620.16  5236.05   338.10   947.24  1557.73
 U, KJ/KG          805.38  1238.06  1671.67  2106.50  2542.85  -918.74  -489.15  -58.211
 G, KJ/KG        -23816.3 -26261.2 -28757.2 -31300.5 -33887.7 -14283.5 -16413.9 -18620.7
 S, KJ/(KG)(K)    48.3577  49.4231  50.4046  51.3152  52.1650  41.7761  43.4029  44.8409

 M, (1/n)           2.315    2.315    2.315    2.315    2.315    2.315    2.315    2.315
 MW, MOL WT         2.314    2.314    2.314    2.314    2.314    2.314    2.314    2.314
 (dLV/dLP)t      -1.00000 -1.00000 -1.00001 -1.00001 -1.00001 -1.00000 -1.00000 -1.00000
 (dLV/dLT)p        1.0000   1.0000   1.0000   1.0000   1.0000   1.0000   1.0000   1.0000
 Cp, KJ/(KG)(K)   12.2373  12.2527  12.2742  12.3018  12.3348  12.1596  12.2001  12.2171
 GAMMAs            1.4153   1.4145   1.4135   1.4122   1.4106   1.4191   1.4171   1.4163
 SON VEL,M/SEC     1671.9   1745.8   1816.4   1884.1   1949.1   1335.5   1426.7   1512.8

 MOLE FRACTIONS

 *Br             1.985-26 6.334-24 8.287-22 5.383-20 1.063-18 0.000  0 7.647-38 3.049-33
 *H              7.802-20 4.276-18 1.272-16 2.339-15 2.928-14 8.936-32 1.064-27 1.589-24
 HBr             1.324-13 2.754-12 3.560-11 3.169-10 1.114 -9 8.688-23 1.217-19 3.349-17
 HCL             8.508-14 1.880-12 2.560-11 2.383-10 1.637 -9 3.726-23 5.984-20 1.835-17
 *HF             3.307-19 2.171-17 7.431-16 1.526-14 2.083-13 8.632-32 1.767-27 3.944-24
 *H2             8.8041-1 8.8041-1 8.8041-1 8.8041-1 8.8041-1 8.8042-1 8.8041-1 8.8041-1
 H2O             1.107-21 9.166-20 3.812-18 9.234-17 1.452-15 6.470-35 2.352-30 8.155-27
 H2S             5.594-19 2.529-17 6.301-16 9.844-15 1.059-13 2.014-30 1.789-26 2.061-23
 *He             1.1881-1 1.1881-1 1.1881-1 1.1881-1 1.1881-1 1.1881-1 1.1881-1 1.1881-1
 *Mg             1.046-20 1.191-18 6.501-17 1.994-15 3.859-14 5.413-35 4.060-30 2.483-26
 MgBr            1.534-24 5.422-22 7.664-20 5.277-18 1.088-16 0.000  0 3.340-36 1.710-31
 MgBr2           2.534-14 1.260-12 3.383-11 5.598-10 1.782 -9 3.162-26 3.697-22 5.240-19
 MgCL            2.899-24 9.946-22 1.372-19 9.249-18 3.521-16 0.000  0 7.244-36 3.505-31
 MgCL2           1.302-16 1.039-14 4.168-13 9.737-12 1.477-10 6.386-30 2.269-25 7.636-22
 MgF             5.664-30 6.095-27 2.213-24 3.424-22 2.679-20 0.000  0 0.000  0 0.000  0
 MgF2            8.165-30 9.049-27 3.366-24 5.313-22 4.228-20 0.000  0 0.000  0 4.339-38
 MgH             1.045-28 5.247-26 1.004-23 9.015-22 4.419-20 0.000  0 0.000  0 5.416-36
 NH3             1.496-17 3.908-16 6.093-15 6.342-14 4.785-13 2.359-27 6.132-24 2.684-21
 SiBr            1.127-29 1.114-26 3.775-24 5.518-22 2.191-20 0.000  0 0.000  0 8.298-38
 SiBr2           1.924-27 1.255-24 2.976-22 3.184-20 5.106-19 0.000  0 0.000  0 4.156-35
 SiCL2           8.224-28 6.019-25 1.573-22 1.831-20 1.117-18 0.000  0 0.000  0 1.312-35
 SiFCL           1.078-29 1.249-26 4.814-24 7.820-22 6.367-20 0.000  0 0.000  0 5.057-38
 SiHBr3          6.182-26 1.677-23 1.886-21 1.063-19 5.196-19 0.000  0 4.857-37 1.581-32
 SiHCL           1.851-25 5.781-23 7.367-21 4.646-19 1.670-17 0.000  0 8.218-37 3.343-32
 SiHCL3          4.334-24 8.773-22 7.704-20 3.514-18 9.500-17 0.000  0 1.271-34 2.421-30
 SiHF            2.168-27 1.019-24 1.834-22 1.556-20 7.238-19 0.000  0 0.000  0 1.317-34
 SiHF3           6.653-25 1.772-22 1.963-20 1.093-18 3.512-17 0.000  0 5.613-36 1.780-31
 SiH2            7.970-24 1.083-21 6.848-20 2.377-18 5.112-17 0.000  0 1.787-33 1.556-29
 SiH2Br2         6.774-19 3.332-17 8.845-16 1.449-14 4.572-14 1.112-30 1.339-26 1.910-23
 SiH2CL2         1.436-17 5.673-16 1.252-14 1.750-13 1.702-12 1.051-28 7.583-25 7.253-22
 SiH2F2          4.477-18 2.102-16 5.363-15 8.496-14 9.203-13 9.890-30 1.080-25 1.424-22
 SiH3            2.651-19 9.934-18 2.109-16 2.871-15 2.743-14 3.644-30 2.191-26 1.838-23
 SiH3Br          2.638-12 2.347-11 1.468-10 6.985-10 1.422 -9 6.206-19 1.332-16 8.266-15
 SiH3CL          8.753-12 7.164-11 4.178-10 1.871 -9 6.796 -9 3.628-18 6.418-16 3.422-14
 SiH3F           4.425-12 3.977-11 2.510-10 1.203 -9 4.632 -9 9.570-19 2.121-16 1.346-14
 SiH4            2.4613-6 4.0456-6 6.0785-6 8.5332-6 1.1369-5 7.2873-8 2.9074-7 8.1203-7
 SiO             3.753-30 4.281-27 1.641-24 2.670-22 2.190-20 0.000  0 0.000  0 0.000  0
 SiS             2.401-26 1.160-23 2.150-21 1.875-19 8.952-18 0.000  0 0.000  0 1.198-33
 MgBr2(cr)       3.0495-9 3.0380-9 2.9245-9 2.1373-9 0.0000 0 3.0495-9 3.0495-9 3.0495-9
 MgCL2(cr)       2.7811-6 2.7810-6 2.7809-6 2.7801-6 2.7768-6 2.7811-6 2.7811-6 2.7811-6
 MgF2(cr)        3.1947-7 3.1945-7 3.1935-7 3.1892-7 3.1716-7 3.1947-7 3.1947-7 3.1947-7
 MgO(cr)         7.0360-5 7.0361-5 7.0362-5 7.0365-5 7.0377-5 7.0360-5 7.0360-5 7.0360-5
 MgS(cr)         3.3091-4 3.3091-4 3.3091-4 3.3092-4 3.3092-4 3.3091-4 3.3091-4 3.3091-4
 Mg2SiO4(cr)     1.4809-4 1.4809-4 1.4809-4 1.4809-4 1.4808-4 1.4809-4 1.4809-4 1.4809-4
 Si(cr)          1.9309-5 1.7729-5 1.5692-5 1.3273-5 1.0393-5 2.1697-5 2.1480-5 2.0958-5
 Si2N2O(cr)      1.9978-4 1.9978-4 1.9978-4 1.9978-4 1.9978-4 1.9978-4 1.9978-4 1.9978-4

  * THERMODYNAMIC PROPERTIES FITTED TO 20000.K

    PRODUCTS WHICH WERE CONSIDERED BUT WHOSE MOLE FRACTIONS
    WERE LESS THAN 1.000000E-20 FOR ALL ASSIGNED CONDITIONS

 BrCL            BrF             BrF3            BrF5            BrO            
 OBrO            BrOO            BrO3            Br2             BrBrO          
 BrOBr           *CL             CLF             CLF3            CLF5           
 CLO             CLO2            CL2             CL2O            *F             
 FO              FO2,FOO         FO2,OFO         F2              F2O            
 F2O2            FS2F            HNO             HNO2            HNO3           
 HOCL            HOF             HO2             HSO3F           H2F2           
 H2O2            H2SO4           H3F3            H4F4            H5F5           
 H6F6            H7F7            MgN             *MgO            MgOH           
 Mg(OH)2         MgS             Mg2             Mg2F4           *N             
 NF              NF2             NF3             *NH             NHF            
 NHF2            NH2             NH2F            NH2OH           *NO            
 NOCL            NOF             NOF3            NO2             NO2CL          
 NO2F            NO3             NO3F            *N2             N2F2           
 N2F4            N2H2            NH2NO2          N2H4            N2O            
 N2O3            N2O4            N2O5            N3              N3H            
 *O              *OH             *O2             O3              *S             
 SCL             SCL2            SF              SF2             SF3            
 SF4             SF5             SF6             SH              SN             
 SO              SOF2            SO2             SO2CL2          SO2FCL         
 SO2F2           SO3             S2              S2CL2           S2F2           
 S2O             S3              S4              S5              S6             
 S7              S8              *Si             SiBr3           SiBr4          
 SiCL            SiCL3           SiCL4           SiF             SiF2           
 SiF3            SiF4            SiH             SiN             SiO2           
 SiS2            Si2             Si2F6           Si2N            Si3            
 Br2(cr)         Br2(L)          H2O(cr)         H2O(L)          H2SO4(L)       
 Mg(cr)          Mg(L)           MgBr2(L)        MgCL2(L)        MgF2(L)        
 MgH2(b)         MgH2(L)         MgO(L)          Mg(OH)2(cr)     Mg(OH)2(L)     
 MgS(L)          MgSO4(II)       MgSO4(I)        MgSO4(L)        MgSiO3(I)      
 MgSiO3(II)      MgSiO3(III)     MgSiO3(L)       Mg2SiO4(L)      Mg3N2(cr)      
 NH4CL(II)       NH4CL(III)      NH4F(cr)        NH4F(L)         S(a)           
 S(b)            S(L)            SCL2(L)         S2CL2(L)        Si(L)          
 SiO2(a-qz)      SiO2(b-qz)      SiO2(b-crt)     SiO2(L)         SiS(cr)        
[...]
 Si2N2O(cr)      1.9978-4 1.9978-4 1.9978-4 1.9978-4 1.9978-4 1.9978-4 1.9979-4 1.9979-4

  * THERMODYNAMIC PROPERTIES FITTED TO 20000.K

    PRODUCTS WHICH WERE CONSIDERED BUT WHOSE MOLE FRACTIONS
    WERE LESS THAN 1.000000E-20 FOR ALL ASSIGNED CONDITIONS

 BrCL            BrF             BrF3            BrF5            BrO            
 OBrO            BrOO            BrO3            Br2             BrBrO          
 BrOBr           *CL             CLF             CLF3            CLF5           
 CLO             CLO2            CL2             CL2O            *F             
 FO              FO2,FOO         FO2,OFO         F2              F2O            
 F2O2            FS2F            HNO             HNO2            HNO3           
 HOCL            HOF             HO2             HSO3F           H2F2           
 H2O2            H2SO4           H3F3            H4F4            H5F5           
 H6F6            H7F7            MgN             *MgO            MgOH           
 Mg(OH)2         MgS             Mg2             Mg2F4           *N             
 NF              NF2             NF3             *NH             NHF            
 NHF2            NH2             NH2F            NH2OH           *NO            
 NOCL            NOF             NOF3            NO2             NO2CL          
 NO2F            NO3             NO3F            *N2             N2F2           
 N2F4            N2H2            NH2NO2          N2H4            N2O            
 N2O3            N2O4            N2O5            N3              N3H            
 *O              *OH             *O2             O3              *S             
 SCL             SCL2            SF              SF2             SF3            
 SF4             SF5             SF6             SH              SN             
 SO              SOF2            SO2             SO2CL2          SO2FCL         
 SO2F2           SO3             S2              S2CL2           S2F2           
 S2O             S3              S4              S5              S6             
 S7              S8              *Si             SiBr3           SiBr4          
 SiCL            SiCL3           SiCL4           SiF             SiF2           
 SiF3            SiF4            SiH             SiN             SiO            
 SiO2            SiS2            Si2             Si2F6           Si2N           
 Si3             Br2(cr)         Br2(L)          H2O(cr)         H2O(L)         
 H2SO4(L)        Mg(cr)          Mg(L)           MgBr2(L)        MgCL2(L)       
 MgF2(L)         MgH2(b)         MgH2(L)         MgO(L)          Mg(OH)2(cr)    
 Mg(OH)2(L)      MgS(L)          MgSO4(II)       MgSO4(I)        MgSO4(L)       
 MgSiO3(I)       MgSiO3(II)      MgSiO3(III)     MgSiO3(L)       Mg2SiO4(L)     
 Mg3N2(cr)       NH4CL(II)       NH4CL(III)      NH4F(cr)        NH4F(L)        
 S(a)            S(b)            S(L)            SCL2(L)         S2CL2(L)       
 Si(L)           SiO2(a-qz)      SiO2(b-qz)      SiO2(b-crt)     SiO2(L)        
 SiS(cr)         SiS(L)          SiS2(cr)        SiS2(L)         Si3N4(cr)      






 POINT ITN      T            H           HE          N           S 
                    O           F           MG          SI          CL
                    BR
   1    2     350.000      -5.097     -11.641     -78.970     -84.374
                -168.696    -175.977     -41.332      -2.292     -95.478
                 -76.800
   2    2     400.000      -5.145     -11.709     -69.112     -74.416
                -147.823    -154.358     -36.493      -2.360     -84.179
                 -68.044
   3    3     450.000      -5.206     -11.796     -61.470     -66.703
                -131.613    -137.578     -32.776      -2.450     -75.431
                 -61.276
   4    3     500.000      -5.274     -11.894     -55.379     -60.561
                -118.667    -124.184     -29.840      -2.553     -68.465
                 -55.895
   5    3     550.000      -5.346     -11.997     -50.415     -55.557
                -108.093    -113.249     -27.469      -2.664     -62.792
                 -51.520
   6    3     600.000      -5.420     -12.101     -46.296     -51.406
                 -99.298    -104.158     -25.520      -2.777     -58.088
                 -47.898
   7    3     650.000      -5.493     -12.206     -42.826     -47.911
                 -91.870     -96.484     -23.893      -2.892     -54.128
                 -44.853
   8    3     700.000      -5.566     -12.309     -39.864     -44.929
                 -85.516     -89.922     -22.517      -3.008     -50.750
                 -42.262
 REMOVE  Si(cr)         
   8    2     700.000      -5.566     -12.309     -39.773     -44.869
                 -85.455     -89.892     -22.578      -3.129     -50.720
                 -42.231




               THERMODYNAMIC EQUILIBRIUM PROPERTIES AT ASSIGNED

                           TEMPERATURE AND PRESSURE

 CASE = saturn         

             REACTANT                       MOLES         ENERGY      TEMP
                                                         KJ/KG-MOL      K
 NAME        H2                           1.0000000         0.000      0.000
 NAME        He                           0.1350000         0.000      0.000
 NAME        N2                           0.0002270         0.000      0.000
 NAME        H2S                          0.0003760         0.000      0.000
 NAME        O2                           0.0004900         0.000      0.000
 NAME        HF                           0.0000007         0.000      0.000
 NAME        Mg                           0.0007960         0.000      0.000
 NAME        Si                           0.0006470         0.000      0.000
 NAME        HCL                          0.0000063         0.000      0.000
 NAME        HBr                          0.0000000         0.000      0.000

 O/F=    0.00000  %FUEL=  0.000000  R,EQ.RATIO=*********  PHI,EQ.RATIO= 0.000000

 THERMODYNAMIC PROPERTIES

 P, BAR            296.30   296.30   296.30   296.30   296.30   296.30   296.30   296.30
 T, K              350.00   400.00   450.00   500.00   550.00   600.00   650.00   700.00
 RHO, KG/CU M    2.3575 1 2.0628 1 1.8336 1 1.6503 1 1.5002 1 1.3752 1 1.2694 1 1.1788 1
 H, KJ/KG          338.10   947.24  1557.74  2168.86  2780.47  3392.73  4005.91  4620.31
 U, KJ/KG         -918.74  -489.14  -58.197   373.38   805.44  1238.17  1671.82  2106.68
 G, KJ/KG        -13326.2 -15319.8 -17389.8 -19527.8 -21727.1 -23982.1 -26288.2 -28641.5
 S, KJ/(KG)(K)    39.0408  40.6675  42.1056  43.3934  44.5592  45.6247  46.6063  47.5169

 M, (1/n)           2.315    2.315    2.315    2.315    2.315    2.315    2.315    2.315
 MW, MOL WT         2.314    2.314    2.314    2.314    2.314    2.314    2.314    2.314
 (dLV/dLP)t      -1.00000 -1.00000 -1.00000 -1.00000 -1.00001 -1.00001 -1.00002 -1.00000
 (dLV/dLT)p        1.0000   1.0000   1.0000   1.0000   1.0000   0.9999   0.9999   1.0000
 Cp, KJ/(KG)(K)   12.1596  12.2002  12.2173  12.2271  12.2379  12.2535  12.2751  12.3011
 GAMMAs            1.4191   1.4171   1.4163   1.4158   1.4152   1.4144   1.4134   1.4123
 SON VEL,M/SEC     1335.5   1426.7   1512.8   1594.4   1671.9   1745.7   1816.3   1884.1

 MOLE FRACTIONS

 *Br             0.000  0 0.000  0 1.423-33 6.782-30 6.893-27 2.199-24 2.878-22 1.927-20
 *H              6.106-32 7.267-28 1.086-24 3.792-22 4.597-20 2.520-18 7.493-17 1.378-15
 HBr             5.936-23 8.312-20 2.288-17 2.019-15 7.801-14 1.623-12 2.098-11 1.925-10
 HCL             2.546-23 4.089-20 1.254-17 1.208-15 5.014-14 1.108-12 1.509-11 1.447-10
 *HF             5.898-32 1.208-27 2.695-24 1.274-21 1.949-19 1.279-17 4.379-16 9.270-15
 *H2             8.8041-1 8.8041-1 8.8041-1 8.8041-1 8.8041-1 8.8041-1 8.8041-1 8.8041-1
 H2O             6.470-35 2.352-30 8.155-27 5.462-24 1.107-21 9.166-20 3.812-18 9.811-17
 H2S             2.014-30 1.789-26 2.061-23 5.699-21 5.594-19 2.529-17 6.301-16 1.046-14
 *He             1.1881-1 1.1881-1 1.1881-1 1.1881-1 1.1881-1 1.1881-1 1.1882-1 1.1882-1
 *Mg             2.527-35 1.895-30 1.159-26 1.227-23 3.632-21 4.134-19 2.257-17 6.516-16
 MgBr            0.000  0 1.559-36 7.984-32 4.571-28 5.326-25 1.883-22 2.661-20 1.777-18
 MgBr2           1.476-26 1.726-22 2.446-19 7.929-17 8.800-15 4.376-13 1.175-11 1.944-10
 MgCL            0.000  0 3.382-36 1.636-31 8.958-28 1.007-24 3.454-22 4.762-20 3.116-18
 MgCL2           2.981-30 1.059-25 3.565-22 2.309-19 4.520-17 3.609-15 1.447-13 3.381-12
 NH3             3.453-27 8.975-24 3.928-21 4.957-19 2.540-17 6.633-16 1.034-14 1.179-13
 SiBr2           0.000  0 0.000  0 1.940-35 2.741-31 6.679-28 4.359-25 1.033-22 1.040-20
 SiHBr3          0.000  0 3.318-37 1.080-32 4.266-29 3.643-26 9.882-24 1.111-21 6.076-20
 SiHCL           0.000  0 5.615-37 2.284-32 1.088-28 1.091-25 3.406-23 4.341-21 2.499-19
 SiHCL3          0.000  0 8.686-35 1.654-30 4.251-27 2.554-24 5.169-22 4.539-20 2.009-18
 SiHF3           0.000  0 3.835-36 1.216-31 4.689-28 3.920-25 1.044-22 1.157-20 6.246-19
 SiH2            0.000  0 1.787-33 1.556-29 2.166-26 7.970-24 1.083-21 6.848-20 2.106-18
 SiH2Br2         1.112-30 1.339-26 1.910-23 6.162-21 6.774-19 3.332-17 8.845-16 1.364-14
 SiH2CL2         1.051-28 7.583-25 7.253-22 1.698-19 1.436-17 5.673-16 1.252-14 1.647-13
 SiH2F2          9.890-30 1.080-25 1.424-22 4.302-20 4.477-18 2.102-16 5.363-15 7.995-14
 SiH3            5.333-30 3.207-26 2.690-23 5.718-21 4.499-19 1.686-17 3.579-16 4.315-15
 SiH3Br          9.083-19 1.950-16 1.210-14 3.173-13 4.477-12 3.982-11 2.492-10 1.082 -9
 SiH3CL          5.310-18 9.394-16 5.009-14 1.163-12 1.485-11 1.216-10 7.090-10 2.899 -9
 SiH3F           1.401-18 3.104-16 1.970-14 5.255-13 7.510-12 6.749-11 4.260-10 1.864 -9
 SiH4            1.5609-7 6.2275-7 1.7393-6 3.8196-6 7.0886-6 1.1651-5 1.7506-5 2.1767-5
 SiS             0.000  0 0.000  0 5.593-34 4.959-30 8.337-27 4.029-24 7.464-22 6.127-20
 MgBr2(cr)       3.0495-9 3.0495-9 3.0495-9 3.0495-9 3.0473-9 3.0296-9 2.9028-9 2.2179-9
 MgCL2(cr)       2.7811-6 2.7811-6 2.7811-6 2.7811-6 2.7811-6 2.7811-6 2.7808-6 2.7797-6
 MgF2(cr)        3.1947-7 3.1947-7 3.1947-7 3.1947-7 3.1947-7 3.1944-7 3.1927-7 3.1855-7
 MgO(cr)         7.0360-5 7.0360-5 7.0360-5 7.0360-5 7.0361-5 7.0362-5 7.0364-5 7.0369-5
 MgS(cr)         3.3091-4 3.3091-4 3.3091-4 3.3091-4 3.3092-4 3.3092-4 3.3092-4 3.3092-4
 Mg2SiO4(cr)     1.4809-4 1.4809-4 1.4809-4 1.4809-4 1.4809-4 1.4809-4 1.4809-4 1.4809-4
 Si(cr)          2.1633-5 2.1148-5 2.0031-5 1.7951-5 1.4682-5 1.0119-5 4.2641-6 0.0000 0
 Si2N2O(cr)      1.9978-4 1.9978-4 1.9978-4 1.9978-4 1.9978-4 1.9978-4 1.9979-4 1.9979-4

  * THERMODYNAMIC PROPERTIES FITTED TO 20000.K

    PRODUCTS WHICH WERE CONSIDERED BUT WHOSE MOLE FRACTIONS
    WERE LESS THAN 1.000000E-20 FOR ALL ASSIGNED CONDITIONS

 BrCL            BrF             BrF3            BrF5            BrO            
 OBrO            BrOO            BrO3            Br2             BrBrO          
 BrOBr           *CL             CLF             CLF3            CLF5           
 CLO             CLO2            CL2             CL2O            *F             
 FO              FO2,FOO         FO2,OFO         F2              F2O            
 F2O2            FS2F            HNO             HNO2            HNO3           
 HOCL            HOF             HO2             HSO3F           H2F2           
 H2O2            H2SO4           H3F3            H4F4            H5F5           
 H6F6            H7F7            MgF             MgF2            MgH            
 MgN             *MgO            MgOH            Mg(OH)2         MgS            
 Mg2             Mg2F4           *N              NF              NF2            
 NF3             *NH             NHF             NHF2            NH2            
 NH2F            NH2OH           *NO             NOCL            NOF            
 NOF3            NO2             NO2CL           NO2F            NO3            
 NO3F            *N2             N2F2            N2F4            N2H2           
 NH2NO2          N2H4            N2O             N2O3            N2O4           
 N2O5            N3              N3H             *O              *OH            
 *O2             O3              *S              SCL             SCL2           
 SF              SF2             SF3             SF4             SF5            
 SF6             SH              SN              SO              SOF2           
 SO2             SO2CL2          SO2FCL          SO2F2           SO3            
 S2              S2CL2           S2F2            S2O             S3             
 S4              S5              S6              S7              S8             
 *Si             SiBr            SiBr3           SiBr4           SiCL           
 SiCL2           SiCL3           SiCL4           SiF             SiFCL          
 SiF2            SiF3            SiF4            SiH             SiHF           
 SiN             SiO             SiO2            SiS2            Si2            
 Si2F6           Si2N            Si3             Br2(cr)         Br2(L)         
 H2O(cr)         H2O(L)          H2SO4(L)        Mg(cr)          Mg(L)          
 MgBr2(L)        MgCL2(L)        MgF2(L)         MgH2(b)         MgH2(L)        
 MgO(L)          Mg(OH)2(cr)     Mg(OH)2(L)      MgS(L)          MgSO4(II)      
 MgSO4(I)        MgSO4(L)        MgSiO3(I)       MgSiO3(II)      MgSiO3(III)    
 MgSiO3(L)       Mg2SiO4(L)      Mg3N2(cr)       NH4CL(II)       NH4CL(III)     
 NH4F(cr)        NH4F(L)         S(a)            S(b)            S(L)           
 SCL2(L)         S2CL2(L)        Si(L)           SiO2(a-qz)      SiO2(b-qz)     
 SiO2(b-crt)     SiO2(L)         SiS(cr)         SiS(L)          SiS2(cr)       
 SiS2(L)         Si3N4(cr)      






 POINT ITN      T            H           HE          N           S 
                    O           F           MG          SI          CL
                    BR
   1    2     750.000      -5.637     -12.411     -37.003     -42.154
                 -79.817     -84.147     -21.545      -3.530     -47.736
                 -39.929
 REMOVE  MgBr2(cr)      
   1    2     750.000      -5.637     -12.411     -37.003     -42.154
                 -79.817     -84.147     -21.545      -3.530     -47.736
                 -40.203




               THERMODYNAMIC EQUILIBRIUM PROPERTIES AT ASSIGNED

                           TEMPERATURE AND PRESSURE

 CASE = saturn         

             REACTANT                       MOLES         ENERGY      TEMP
                                                         KJ/KG-MOL      K
 NAME        H2                           1.0000000         0.000      0.000
 NAME        He                           0.1350000         0.000      0.000
 NAME        N2                           0.0002270         0.000      0.000
 NAME        H2S                          0.0003760         0.000      0.000
 NAME        O2                           0.0004900         0.000      0.000
 NAME        HF                           0.0000007         0.000      0.000
 NAME        Mg                           0.0007960         0.000      0.000
 NAME        Si                           0.0006470         0.000      0.000
 NAME        HCL                          0.0000063         0.000      0.000
 NAME        HBr                          0.0000000         0.000      0.000

 O/F=    0.00000  %FUEL=  0.000000  R,EQ.RATIO=*********  PHI,EQ.RATIO= 0.000000

 THERMODYNAMIC PROPERTIES

 P, BAR            296.30
 T, K              750.00
 RHO, KG/CU M    1.1002 1
 H, KJ/KG         5236.16
 U, KJ/KG         2542.99
 G, KJ/KG        -31038.8
 S, KJ/(KG)(K)    48.3667

 M, (1/n)           2.315
 MW, MOL WT         2.314
 (dLV/dLP)t      -1.00000
 (dLV/dLT)p        1.0000
 Cp, KJ/(KG)(K)   12.3341
 GAMMAs            1.4107
 SON VEL,M/SEC     1949.2

 MOLE FRACTIONS

 *Br             5.837-19
 *H              1.725-14
 HBr             1.0383-9
 HCL             1.0682-9
 *HF             1.359-13
 *H2             8.8041-1
 H2O             1.782-15
 H2S             1.299-13
 *He             1.1882-1
 *Mg             1.092-14
 MgBr            4.872-17
 MgBr2           1.2620-9
 MgCL            1.104-16
 MgCL2           5.128-11
 MgF2            1.468-20
 MgH             2.123-20
 NH3             1.103-12
 SiBr2           2.948-19
 SiCL2           3.161-19
 SiFCL           1.802-20
 SiHBr3          8.054-19
 SiHCL           7.244-18
 SiHCL3          5.054-17
 SiHF            3.139-19
 SiHF3           1.868-17
 SiH2            3.397-17
 SiH2Br2         7.604-14
 SiH2CL2         1.387-12
 SiH2F2          7.503-13
 SiH3            3.093-14
 SiH3Br          2.5369-9
 SiH3CL          8.4890-9
 SiH3F           5.7862-9
 SiH4            2.1759-5
 SiS             2.534-18
 MgCL2(cr)       2.7763-6
 MgF2(cr)        3.1659-7
 MgO(cr)         7.0382-5
 MgS(cr)         3.3092-4
 Mg2SiO4(cr)     1.4809-4
 Si2N2O(cr)      1.9979-4

  * THERMODYNAMIC PROPERTIES FITTED TO 20000.K

    PRODUCTS WHICH WERE CONSIDERED BUT WHOSE MOLE FRACTIONS
    WERE LESS THAN 1.000000E-20 FOR ALL ASSIGNED CONDITIONS

 BrCL            BrF             BrF3            BrF5            BrO            
 OBrO            BrOO            BrO3            Br2             BrBrO          
 BrOBr           *CL             CLF             CLF3            CLF5           
 CLO             CLO2            CL2             CL2O            *F             
 FO              FO2,FOO         FO2,OFO         F2              F2O            
 F2O2            FS2F            HNO             HNO2            HNO3           
 HOCL            HOF             HO2             HSO3F           H2F2           
 H2O2            H2SO4           H3F3            H4F4            H5F5           
 H6F6            H7F7            MgF             MgN             *MgO           
 MgOH            Mg(OH)2         MgS             Mg2             Mg2F4          
 *N              NF              NF2             NF3             *NH            
 NHF             NHF2            NH2             NH2F            NH2OH          
 *NO             NOCL            NOF             NOF3            NO2            
 NO2CL           NO2F            NO3             NO3F            *N2            
 N2F2            N2F4            N2H2            NH2NO2          N2H4           
 N2O             N2O3            N2O4            N2O5            N3             
 N3H             *O              *OH             *O2             O3             
 *S              SCL             SCL2            SF              SF2            
 SF3             SF4             SF5             SF6             SH             
 SN              SO              SOF2            SO2             SO2CL2         
 SO2FCL          SO2F2           SO3             S2              S2CL2          
 S2F2            S2O             S3              S4              S5             
 S6              S7              S8              *Si             SiBr           
 SiBr3           SiBr4           SiCL            SiCL3           SiCL4          
 SiF             SiF2            SiF3            SiF4            SiH            
 SiN             SiO             SiO2            SiS2            Si2            
 Si2F6           Si2N            Si3             Br2(cr)         Br2(L)         
 H2O(cr)         H2O(L)          H2SO4(L)        Mg(cr)          Mg(L)          
 MgBr2(cr)       MgBr2(L)        MgCL2(L)        MgF2(L)         MgH2(b)        
 MgH2(L)         MgO(L)          Mg(OH)2(cr)     Mg(OH)2(L)      MgS(L)         
 MgSO4(II)       MgSO4(I)        MgSO4(L)        MgSiO3(I)       MgSiO3(II)     
 MgSiO3(III)     MgSiO3(L)       Mg2SiO4(L)      Mg3N2(cr)       NH4CL(II)      
 NH4CL(III)      NH4F(cr)        NH4F(L)         S(a)            S(b)           
 S(L)            SCL2(L)         S2CL2(L)        Si(cr)          Si(L)          
 SiO2(a-qz)      SiO2(b-qz)      SiO2(b-crt)     SiO2(L)         SiS(cr)        
 SiS(L)          SiS2(cr)        SiS2(L)         Si3N4(cr)      



