
 *******************************************************************************

         NASA-GLENN CHEMICAL EQUILIBRIUM PROGRAM CEA2, MAY 21, 2004
                   BY  BONNIE MCBRIDE AND SANFORD GORDON
      REFS: NASA RP-1311, PART I, 1994 AND NASA RP-1311, PART II, 1996

 *******************************************************************************



 prob
 case=saturn tp
 t,k= 800,850,900,950,1000,1050,1100,1150,1200,1250
 p,bar= 369.74, 455.55, 555.05, 669.65, 800.88, 950.36, 1119.83, 1311.16, 1526.32
 , 1767.42
 react
   name=H2 moles=1.0
   name=He moles=0.135
   name=CH4 moles=5.33e-3
   name=N2 moles = 2.27e-4
   name=H2S moles=3.76e-4
   name=PH3 moles = 4.0e-6
  
 # ten time solar water
   name=O2 moles = 4.9e-3
 # all others are one time solar
   name=HF moles = 7.26e-8
 #  name=Na moles = 3.48e-6
 #  name=Mg moles = 7.96e-5
 #  name=Si moles=6.47e-5
  
   name=HCL moles = 6.32e-7
 #  name=K moles = 2.14e-7
 #  name=Ca moles = 4.38e-6
 #  name=GeH4 moles = 8.93e-9
   name=HBr moles=6.93e-10
  
 output    trace=1e-20
 plot t p HOPO H3PO4(cr) PF3 PH2 PH3 POF3 H3PO4(L) HPO PH PN PO PS P2 P2O3 P4 PO2
  PCL P3
  
 end

 OPTIONS: TP=T  HP=F  SP=F  TV=F  UV=F  SV=F  DETN=F  SHOCK=F  REFL=F  INCD=F
 RKT=F  FROZ=F  EQL=F  IONS=F  SIUNIT=T  DEBUGF=F  SHKDBG=F  DETDBG=F  TRNSPT=F

 T,K =   800.0000   850.0000   900.0000   950.0000  1000.0000  1050.0000  1100.0000

 T,K =  1150.0000  1200.0000  1250.0000

 TRACE= 1.00E-20  S/R= 0.000000E+00  H/R= 0.000000E+00  U/R= 0.000000E+00

 P,BAR =   369.740000   455.550000   555.050000   669.650000   800.880000   950.360000  1119.830000

 P,BAR =  1311.160000  1526.320000  1767.420000

    REACTANT           MOLES    (ENERGY/R),K   TEMP,K  DENSITY
        EXPLODED FORMULA
 N: H2               1.000000   0.000000E+00     0.00  0.0000
          H  2.00000
 N: He               0.135000   0.000000E+00     0.00  0.0000
          HE 1.00000
 N: CH4              0.005330   0.000000E+00     0.00  0.0000
          C  1.00000  H  4.00000
 N: N2               0.000227   0.000000E+00     0.00  0.0000
          N  2.00000
 N: H2S              0.000376   0.000000E+00     0.00  0.0000
          H  2.00000  S  1.00000
 N: PH3              0.000004   0.000000E+00     0.00  0.0000
          P  1.00000  H  3.00000
 N: O2               0.004900   0.000000E+00     0.00  0.0000
          O  2.00000
 N: HF               0.000000   0.000000E+00     0.00  0.0000
          H  1.00000  F  1.00000
 N: HCL              0.000001   0.000000E+00     0.00  0.0000
          H  1.00000  CL 1.00000
 N: HBr              0.000000   0.000000E+00     0.00  0.0000
          H  1.00000  BR 1.00000

  SPECIES BEING CONSIDERED IN THIS SYSTEM
 (CONDENSED PHASE MAY HAVE NAME LISTED SEVERAL TIMES)
  LAST thermo.inp UPDATE:    9/09/04

  g 3/97  *Br              tpis89  BrCL             tpis89  BrF            
  tpis89  BrF3             tpis89  BrF5             j 3/96  BrO            
  j 3/96  OBrO             j 3/96  BrOO             j 3/96  BrO3           
  tpis89  Br2              j 3/96  BrBrO            j 3/96  BrOBr          
  g 7/97  *C               tpis91  CBr              tpis91  CBr2           
  tpis91  CBr3             g 8/99  CBr4             g 8/99  CCL            
  tpis91  CCLBr3           g 8/99  CCL2             tpis91  CCL2Br2        
  n12/93  CCL3             tpis91  CCL3Br           tpis91  CCL4           
  tpis91  CF               tpis91  CFBr3            g 9/99  CFCL           
  tpis91  CFCLBr2          tpis91  CFCL2            tpis91  CFCL2Br        
  g 7/99  CFCL3            g 9/99  CF2              tpis91  CF2Br2         
  tpis91  CF2CL            tpis91  CF2CLBr          g 7/99  CF2CL2         
  g 8/99  CF3              tpis91  CF3Br            g 7/99  CF3CL          
  g 7/99  CF4              tpis79  *CH              g 8/99  CHBr3          
  g 9/99  CHCL             tpis91  CHCLBr2          n12/93  CHCL2          
  tpis91  CHCL2Br          g 7/99  CHCL3            g 8/99  CHF            
  tpis91  CHFBr2           tpis91  CHFCL            tpis91  CHFCLBr        
  g 7/99  CHFCL2           n 6/88  CHF2             tpis91  CHF2Br         
  g 7/99  CHF2CL           g 8/99  CHF3             g 4/02  CH2            
  g 8/99  CH2Br2           g12/99  CH2CL            tpis91  CH2CLBr        
  tpis91  CH2CL2           n 6/88  CH2F             tpis91  CH2FBr         
  g 7/99  CH2FCL           g 8/99  CH2F2            g 4/02  CH3            
  g 8/99  CH3Br            tpis91  CH3CL            g 8/99  CH3F           
  g11/00  CH2OH            g 7/00  CH3O             g 8/99  CH4            
  g 7/00  CH3OH            srd 01  CH3OOH           g 8/99  *CN            
  g12/99  CNN              tpis79  *CO              tpis91  COCL           
  tpis91  COCL2            tpis91  COFCL            tpis91  COF2           
  tpis91  COHCL            tpis91  COHF             g 5/01  COS            
  g 9/99  *CO2             tpis91  COOH             tpis91  CP             
  g11/01  CS               g 6/95  CS2              tpis91  *C2            
  tpis91  C2CL             g 5/02  C2CL2            tpis91  C2CL3          
  g 5/02  C2CL4            g 5/02  C2CL6            tpis91  C2F            
  tpis91  C2FCL            tpis91  C2FCL3           tpis91  C2F2           
  tpis91  C2F2CL2          tpis91  C2F3             tpis91  C2F3CL         
  tpis91  C2F4             g12/99  C2F6             g 6/01  C2H            
  g 5/02  C2HCL            g 5/02  C2HCL3           tpis91  C2HF           
  tpis91  C2HFCL2          tpis91  C2HF2CL          tpis91  C2HF3          
  g 1/91  C2H2,acetylene   g 5/01  C2H2,vinylidene  tpis91  C2H2CL2        
  tpis91  C2H2FCL          tpis91  C2H2F2           g 4/02  CH2CO,ketene   
  g 3/02  O(CH)2O          srd 01  HO(CO)2OH        g 7/01  C2H3,vinyl     
  srd 01  CH2Br-COOH       g 5/02  C2H3CL           srd 01  CH2CL-COOH     
  tpis91  C2H3F            g 9/00  CH3CN            g 6/96  CH3CO,acetyl   
  g 1/00  C2H4             g 8/88  C2H4O,ethylen-o  g 8/88  CH3CHO,ethanal 
  g 6/00  CH3COOH          srd 01  OHCH2COOH        g 7/00  C2H5           
  n 6/79  C2H5Br           g 7/00  C2H6             g 8/88  CH3N2CH3       
  g 8/88  C2H5OH           g 7/00  CH3OCH3          srd 01  CH3O2CH3       
  g 7/00  CCN              tpis91  CNC              srd 01  OCCN           
  tpis79  C2N2             g 8/00  C2O              n 6/01  C2S2           
  tpis79  *C3              n 4/98  C3H3,1-propynl   n 4/98  C3H3,2-propynl 
  g 2/00  C3H4,allene      g 1/00  C3H4,propyne     g 5/90  C3H4,cyclo-    
  g 3/01  C3H5,allyl       g 2/00  C3H6,propylene   g 1/00  C3H6,cyclo-    
  g 6/01  C3H6O,propylox   g 6/97  C3H6O,acetone    g 1/02  C3H6O,propanal 
  g 7/01  C3H7,n-propyl    g 9/85  C3H7,i-propyl    g 2/00  C3H8           
  g 2/00  C3H8O,1propanol  g 2/00  C3H8O,2propanol  srd 01  CNCOCN         
  n 6/01  C3OS             g 7/88  C3O2             n 6/01  C3S2           
  g tpis  *C4              g 7/01  C4H2,butadiyne   g 8/00  C4H4,1,3-cyclo-
  n10/92  C4H6,butadiene   n10/93  C4H6,1butyne     n10/93  C4H6,2butyne   
  g 8/00  C4H6,cyclo-      n 4/88  C4H8,1-butene    n 4/88  C4H8,cis2-buten
  n 4/88  C4H8,tr2-butene  n 4/88  C4H8,isobutene   g 8/00  C4H8,cyclo-    
  g10/00  (CH3COOH)2       n10/84  C4H9,n-butyl     n10/84  C4H9,i-butyl   
  g 1/93  C4H9,s-butyl     g 1/93  C4H9,t-butyl     g12/00  C4H10,n-butane 
  g 8/00  C4H10,isobutane  g 6/01  C4N2             g 8/00  *C5            
  g 5/90  C5H6,1,3cyclo-   g 1/93  C5H8,cyclo-      n 4/87  C5H10,1-pentene
  g 2/01  C5H10,cyclo-     n10/84  C5H11,pentyl     g 1/93  C5H11,t-pentyl 
  n10/85  C5H12,n-pentane  n10/85  C5H12,i-pentane  n10/85  CH3C(CH3)2CH3  
  g 2/93  C6H2             g11/00  C6H5,phenyl      g 8/00  C6H5O,phenoxy  
  g 8/00  C6H6             g 8/00  C6H5OH,phenol    g 1/93  C6H10,cyclo-   
  n 4/87  C6H12,1-hexene   g 6/90  C6H12,cyclo-     n10/83  C6H13,n-hexyl  
  g 6/01  C6H14,n-hexane   g 7/01  C7H7,benzyl      g 1/93  C7H8           
  g12/00  C7H8O,cresol-mx  n 4/87  C7H14,1-heptene  n10/83  C7H15,n-heptyl 
  n10/85  C7H16,n-heptane  n10/85  C7H16,2-methylh  n 4/89  C8H8,styrene   
  n10/86  C8H10,ethylbenz  n 4/87  C8H16,1-octene   n10/83  C8H17,n-octyl  
  n 4/85  C8H18,n-octane   n 4/85  C8H18,isooctane  n10/83  C9H19,n-nonyl  
  g 3/01  C10H8,naphthale  n10/83  C10H21,n-decyl   g 8/00  C12H9,o-bipheny
  g 8/00  C12H10,biphenyl  g 7/97  *CL              g 6/95  CLCN           
  tpis89  CLF              tpis89  CLF3             tpis89  CLF5           
  tpis89  CLO              g 7/93  CLO2             tpis89  CL2            
  tpis89  CL2O             g 5/97  *F               g 5/99  FCN            
  g12/99  FCO              j 9/95  FO               j 9/95  FO2,FOO        
  j 9/95  FO2,OFO          tpis89  F2               g 4/99  F2O            
  j 9/95  F2O2             j 6/76  FS2F             g 6/97  *H             
  tpis89  HBr              g 6/01  HCN              g 1/01  HCO            
  tpis89  HCCN             g 6/01  HCCO             tpis89  HCL            
  tpis89  *HF              g 6/01  HNC              g 7/00  HNCO           
  g10/01  HNO              tpis89  HNO2             g 5/99  HNO3           
  g 1/01  HOCL             tpis89  HOF              g 4/02  HO2            
  tpis89  HOPO             tpis89  HPO              j 6/72  HSO3F          
  tpis78  *H2              g 5/01  HCHO,formaldehy  g 6/01  HCOOH          
  tpis89  H2F2             g 8/89  H2O              g 6/99  H2O2           
  g 4/01  H2S              tpis89  H2SO4            tpis89  H3F3           
  g 6/01  (HCOOH)2         tpis89  H4F4             tpis89  H5F5           
  tpis89  H6F6             tpis89  H7F7             g 5/97  *He            
  g 5/97  *N               g 6/01  NCO              tpis89  NF             
  g 4/99  NF2              g 4/99  NF3              g 4/99  *NH            
  tpis89  NHF              tpis89  NHF2             g 3/01  NH2            
  tpis89  NH2F             tpis89  NH3              tpis89  NH2OH          
  tpis89  *NO              g 4/99  NOCL             g 4/99  NOF            
  tpis89  NOF3             g 4/99  NO2              g 4/99  NO2CL          
  g 4/99  NO2F             j12/64  NO3              tpis89  NO3F           
  tpis78  *N2              g 6/01  NCN              tpis89  N2F2           
  tpis89  N2F4             g 5/99  N2H2             tpis89  NH2NO2         
  g 4/99  N2H4             g 4/99  N2O              g 4/99  N2O3           
  tpis89  N2O4             g 4/99  N2O5             tpis89  N3             
  g 4/99  N3H              g 5/97  *O               g 4/02  *OH            
  tpis89  *O2              g 8/01  O3               g 5/97  *P             
  tpis89  PCL              tpis89  PCL2             tpis89  PCL3           
  tpis89  PCL5             tpis89  PF               tpis89  PFCL           
  tpis89  PFCL2            tpis89  PFCL4            tpis89  PF2            
  tpis89  PF2CL            tpis89  PF2CL3           tpis89  PF3            
  tpis89  PF3CL2           tpis89  PF4CL            tpis89  PF5            
  tpis89  PH               tpis89  PH2              j 6/62  PH3            
  tpis89  PN               tpis89  PO               tpis89  POCL3          
  tpis89  POFCL2           tpis89  POF2CL           tpis89  POF3           
  tpis89  PO2              tpis89  PS               tpis89  P2             
  tpis89  P2O3             tpis89  P2O4             tpis89  P2O5           
  tpis89  P3               tpis89  P3O6             tpis89  P4             
  tpis89  P4O6             tpis89  P4O7             tpis89  P4O8           
  tpis89  P4O9             tpis89  P4O10            g 5/97  *S             
  j 6/78  SCL              j 6/78  SCL2             tpis89  SF             
  tpis89  SF2              tpis89  SF3              tpis89  SF4            
  tpis89  SF5              tpis89  SF6              g10/01  SH             
  tpis89  SN               tpis89  SO               tpis89  SOF2           
  tpis89  SO2              j 6/71  SO2CL2           j 6/71  SO2FCL         
  tpis89  SO2F2            tpis89  SO3              tpis89  S2             
  g12/00  S2CL2            j 6/76  S2F2             tpis89  S2O            
  tpis89  S3               tpis89  S4               tpis89  S5             
  tpis89  S6               tpis89  S7               tpis89  S8             
  g 8/01  Br2(cr)          g 8/01  Br2(L)           g 8/01  Br2(L)         
  n 4/83  C(gr)            n 4/83  C(gr)            n 4/83  C(gr)          
  g11/99  H2O(cr)          g 8/01  H2O(L)           g 8/01  H2O(L)         
  j 9/77  H2SO4(L)         j12/71  H3PO4(cr)        j12/71  H3PO4(L)       
  j 9/65  NH4CL(II)        j 9/65  NH4CL(III)       j 9/65  NH4CL(III)     
  tpis89  NH4F(cr)         tpis89  NH4F(cr)         tpis89  NH4F(L)        
  tpis89  P(cr)            tpis89  P(L)             tpis89  P4O10(cr)      
  tpis89  P4O10(cr)        tpis89  P4O10(L)         tpis89  S(a)           
  tpis89  S(b)             tpis89  S(L)             tpis89  S(L)           
  tpis89  S(L)             tpis89  S(L)             tpis89  S(L)           
  j 6/78  SCL2(L)          j 6/78  S2CL2(L)       

 O/F =   0.000000

                       EFFECTIVE FUEL     EFFECTIVE OXIDANT        MIXTURE
 ENTHALPY                  h(2)/R              h(1)/R               h0/R
 (KG-MOL)(K)/KG        0.00000000E+00      0.00000000E+00      0.00000000E+00

 KG-FORM.WT./KG             bi(2)               bi(1)               b0i
  *H                   0.71759442E+00      0.00000000E+00      0.71759442E+00
  *He                  0.47908600E-01      0.00000000E+00      0.47908600E-01
  *C                   0.18915025E-02      0.00000000E+00      0.18915025E-02
  *N                   0.16111485E-03      0.00000000E+00      0.16111485E-03
  *S                   0.13343432E-03      0.00000000E+00      0.13343432E-03
  *P                   0.14195141E-05      0.00000000E+00      0.14195141E-05
  *O                   0.34778095E-02      0.00000000E+00      0.34778095E-02
  *F                   0.25764180E-07      0.00000000E+00      0.25764180E-07
  *CL                  0.22428322E-06      0.00000000E+00      0.22428322E-06
  *Br                  0.24593081E-09      0.00000000E+00      0.24593081E-09

 POINT ITN      T            H           HE          C           N 
                    S           P           O           F           CL
                    BR
   1   48     800.000      -5.604     -12.293     -12.531     -16.924
                 -20.320     -16.187     -48.205     -68.303     -40.513
                 -40.330
   2    2     850.000      -5.672     -12.390     -11.832     -16.519
                 -20.181     -16.259     -46.097     -65.954     -39.766
                 -40.080
   3    2     900.000      -5.739     -12.484     -11.214     -16.164
                 -20.062     -16.328     -44.228     -63.872     -39.109
                 -39.864
   4    2     950.000      -5.804     -12.576     -10.665     -15.853
                 -19.961     -16.397     -42.559     -62.014     -38.526
                 -39.677
   5    3    1000.000      -5.867     -12.665     -10.173     -15.583
                 -19.875     -16.464     -41.060     -60.347     -38.007
                 -39.514
   6    3    1050.000      -5.928     -12.751      -9.733     -15.351
                 -19.802     -16.531     -39.707     -58.843     -37.542
                 -39.371
   7    3    1100.000      -5.988     -12.835      -9.336     -15.156
                 -19.739     -16.598     -38.480     -57.480     -37.123
                 -39.246
   8    3    1150.000      -6.046     -12.917      -8.978     -14.998
                 -19.686     -16.664     -37.363     -56.238     -36.745
                 -39.136




               THERMODYNAMIC EQUILIBRIUM PROPERTIES AT ASSIGNED

                           TEMPERATURE AND PRESSURE

 CASE = saturn         

             REACTANT                       MOLES         ENERGY      TEMP
                                                         KJ/KG-MOL      K
 NAME        H2                           1.0000000         0.000      0.000
 NAME        He                           0.1350000         0.000      0.000
 NAME        CH4                          0.0053300         0.000      0.000
 NAME        N2                           0.0002270         0.000      0.000
 NAME        H2S                          0.0003760         0.000      0.000
 NAME        PH3                          0.0000040         0.000      0.000
 NAME        O2                           0.0049000         0.000      0.000
 NAME        HF                           0.0000001         0.000      0.000
 NAME        HCL                          0.0000006         0.000      0.000
 NAME        HBr                          0.0000000         0.000      0.000

 O/F=    0.00000  %FUEL=  0.000000  R,EQ.RATIO=*********  PHI,EQ.RATIO= 0.000000

 THERMODYNAMIC PROPERTIES

 P, BAR            369.74   369.74   369.74   369.74   369.74   369.74   369.74   369.74
 T, K              800.00   850.00   900.00   950.00  1000.00  1050.00  1100.00  1150.00
 RHO, KG/CU M    1.3734 1 1.2926 1 1.2208 1 1.1566 1 1.0987 1 1.0464 1 9.9882 0 9.5537 0
 H, KJ/KG         4785.83  5370.52  5957.72  6547.77  7141.13  7738.02  8338.50  8942.87
 U, KJ/KG         2093.70  2510.13  2929.07  3350.86  3775.94  4204.54  4636.71  5072.75
 G, KJ/KG        -31976.1 -34291.6 -36641.6 -39024.3 -41438.2 -43881.8 -46353.9 -48853.5
 S, KJ/(KG)(K)    45.9524  46.6613  47.3326  47.9706  48.5793  49.1617  49.7204  50.2577

 M, (1/n)           2.471    2.471    2.471    2.471    2.471    2.471    2.471    2.471
 (dLV/dLP)t      -1.00000 -1.00000 -1.00000 -1.00001 -1.00002 -1.00003 -1.00005 -1.00007
 (dLV/dLT)p        1.0000   1.0000   1.0000   1.0001   1.0001   1.0002   1.0003   1.0004
 Cp, KJ/(KG)(K)   11.6704  11.7179  11.7713  11.8324  11.9042  11.9725  12.0477  12.1277
 GAMMAs            1.4052   1.4029   1.4004   1.3975   1.3942   1.3911   1.3878   1.3844
 SON VEL,M/SEC     1945.0   2003.2   2059.4   2113.7   2166.0   2217.1   2266.6   2314.7

 MOLE FRACTIONS

 *Br             1.398-18 5.322-18 1.749-17 5.081-17 1.328-16 3.174-16 7.013-16 1.448-15
 CH2             3.071-28 2.038-26 8.507-25 2.401-23 4.858-22 7.385-21 8.766-20 8.390-19
 CH2CL           2.193-25 2.988-24 3.057-23 2.456-22 1.605-21 8.785-21 4.125-20 1.694-19
 CH3             1.131-14 8.426-14 5.030-13 2.490-12 1.051-11 3.867-11 1.264-10 3.724-10
 CH3Br           2.913-17 5.792-17 1.070-16 1.855-16 3.049-16 4.786-16 7.215-16 1.050-15
 CH3CL           4.278-15 9.399-15 1.896-14 3.560-14 6.285-14 1.052-13 1.682-13 2.583-13
 CH3F            1.154-17 3.124-17 7.581-17 1.678-16 3.436-16 6.578-16 1.188-15 2.039-15
 CH2OH           5.143-22 7.885-21 8.966-20 7.922-19 5.645-18 3.343-17 1.687-16 7.403-16
 CH3O            2.073-24 4.241-23 6.245-22 6.968-21 6.137-20 4.411-19 2.659-18 1.375-17
 CH4             4.6735-3 4.6734-3 4.6734-3 4.6734-3 4.6734-3 4.6733-3 4.6732-3 4.6728-3
 CH3OH           9.789-13 2.803-12 7.161-12 1.660-11 3.545-11 7.052-11 1.319-10 2.339-10
 *CO             1.422-11 1.019-10 5.904-10 2.856 -9 1.184 -8 4.300 -8 1.391 -7 4.066 -7
 COHCL           1.799-24 1.789-23 1.389-22 8.742-22 4.600-21 2.074-20 8.182-20 2.871-19
 COHF            1.629-23 1.233-22 7.506-22 3.801-21 1.644-20 6.209-20 2.085-19 6.314-19
 COS             2.861-16 1.958-15 1.093-14 5.129-14 2.075-13 7.381-13 2.348-12 6.775-12
 *CO2            5.936-13 3.079-12 1.344-11 5.063-11 1.682-10 5.011-10 1.358 -9 3.384 -9
 COOH            5.004-25 1.255-23 2.222-22 2.930-21 3.004-20 2.480-19 1.697-18 9.857-18
 CS              3.679-24 1.163-22 2.518-21 3.959-20 4.741-19 4.489-18 3.469-17 2.245-16
 CS2             1.224-20 1.168-19 8.755-19 5.345-18 2.738-17 1.205-16 4.650-16 1.599-15
 C2H2,acetylene  1.738-22 5.987-21 1.403-19 2.373-18 3.038-17 3.061-16 2.505-15 1.710-14
 CH2CO,ketene    1.844-22 4.731-21 8.554-20 1.150-18 1.199-17 1.006-16 6.974-16 4.098-15
 C2H3,vinyl      7.200-28 4.421-26 1.728-24 4.609-23 8.881-22 1.293-20 1.478-19 1.367-18
 C2H3CL          1.901-25 2.303-24 2.133-23 1.572-22 9.542-22 4.896-21 2.171-20 8.475-20
 CH3CN           3.004-19 3.755-18 3.572-17 2.691-16 1.656-15 8.530-15 3.748-14 1.428-13
 CH3CO,acetyl    2.168-26 7.658-25 1.839-23 3.188-22 4.180-21 4.313-20 3.613-19 2.524-18
 C2H4            7.848-15 5.232-14 2.840-13 1.295-12 5.087-12 1.758-11 5.434-11 1.524-10
 C2H4O,ethylen-o 1.755-27 4.049-26 6.651-25 8.198-24 7.907-23 6.176-22 4.017-21 2.227-20
 CH3CHO,ethanal  6.704-19 5.697-18 3.849-17 2.140-16 1.008-15 4.112-15 1.481-14 4.783-14
 CH3COOH         3.564-21 2.580-20 1.521-19 7.527-19 3.207-18 1.201-17 4.016-17 1.217-16
 C2H5            5.705-20 6.675-19 5.967-18 4.249-17 2.492-16 1.237-15 5.314-15 2.012-14
 C2H5Br          3.789-23 1.250-22 3.635-22 9.504-22 2.267-21 4.997-21 1.028-20 1.990-20
 C2H6            5.039-10 9.512-10 1.679 -9 2.798 -9 4.439 -9 6.752 -9 9.896 -9 1.404 -8
 C2H5OH          4.172-18 1.851-17 7.011-17 2.323-16 6.860-16 1.835-15 4.504-15 1.025-14
 CH3OCH3         3.789-22 2.606-21 1.457-20 6.832-20 2.758-19 9.781-19 3.102-18 8.918-18
 C3H4,allene     1.103-27 5.534-26 1.817-24 4.166-23 7.028-22 9.103-21 9.373-20 7.898-19
 C3H4,propyne    4.937-27 2.344-25 7.326-24 1.607-22 2.603-21 3.250-20 3.235-19 2.643-18
 C3H5,allyl      2.244-27 8.697-26 2.272-24 4.247-23 5.966-22 6.552-21 5.810-20 4.274-19
 C3H6,propylene  5.348-20 5.522-19 4.438-18 2.884-17 1.563-16 7.237-16 2.924-15 1.049-14
 C3H6,cyclo-     9.045-24 1.247-22 1.297-21 1.062-20 7.092-20 3.972-19 1.909-18 8.024-18
 C3H6O,acetone   1.022-23 1.133-22 9.735-22 6.730-21 3.863-20 1.889-19 8.029-19 3.020-18
 C3H6O,propanal  2.564-25 3.873-24 4.386-23 3.889-22 2.796-21 1.678-20 8.601-20 3.841-19
 C3H7,n-propyl   2.619-26 5.428-25 8.104-24 9.164-23 8.174-22 5.943-21 3.618-20 1.887-19
 C3H7,i-propyl   5.903-26 1.118-24 1.538-23 1.614-22 1.345-21 9.183-21 5.278-20 2.609-19
 C3H8            2.934-16 9.581-16 2.765-15 7.182-15 1.704-14 3.740-14 7.664-14 1.479-13
 C3H8O,1propanol 2.452-24 1.869-23 1.149-22 5.887-22 2.581-21 9.886-21 3.368-20 1.035-19
 C3H8O,2propanol 7.814-24 5.225-23 2.864-22 1.327-21 5.316-21 1.879-20 5.958-20 1.716-19
 C4H8,1-butene   2.945-26 5.258-25 6.905-24 6.987-23 5.655-22 3.774-21 2.130-20 1.038-19
 C4H8,cis2-buten 2.970-26 4.877-25 5.939-24 5.610-23 4.264-22 2.687-21 1.438-20 6.670-20
 C4H8,tr2-butene 3.553-26 5.765-25 6.950-24 6.513-23 4.918-22 3.082-21 1.642-20 7.589-20
 C4H8,isobutene  6.387-26 9.864-25 1.138-23 1.026-22 7.480-22 4.542-21 2.351-20 1.059-19
 C4H10,n-butane  1.640-22 9.312-22 4.416-21 1.796-20 6.401-20 2.035-19 5.853-19 1.542-18
 C4H10,isobutane 1.141-22 5.982-22 2.645-21 1.010-20 3.406-20 1.030-19 2.830-19 7.157-19
 *CL             9.286-20 6.363-19 3.530-18 1.639-17 6.537-17 2.289-16 7.165-16 2.033-15
 *H              1.404-13 9.932-13 5.666-12 2.697-11 1.100-10 3.932-10 1.253 -9 3.617 -9
 HBr             6.076-10 6.076-10 6.076-10 6.076-10 6.076-10 6.076-10 6.076-10 6.076-10
 HCN             6.434-16 7.171-15 6.145-14 4.208-13 2.372-12 1.127-11 4.596-11 1.634-10
 HCO             1.875-22 5.079-21 9.586-20 1.334-18 1.431-17 1.228-16 8.679-16 5.182-15
 HCL             5.5415-7 5.5415-7 5.5415-7 5.5415-7 5.5415-7 5.5414-7 5.5413-7 5.5412-7
 *HF             6.3657-8 6.3657-8 6.3657-8 6.3657-8 6.3657-8 6.3656-8 6.3655-8 6.3654-8
 HNC             1.146-19 2.220-18 3.112-17 3.310-16 2.774-15 1.887-14 1.066-13 5.109-13
 HNCO            2.508-18 2.659-17 2.186-16 1.446-15 7.917-15 3.670-14 1.466-13 5.120-13
 HNO             1.882-28 6.413-27 1.481-25 2.459-24 3.074-23 3.001-22 2.357-21 1.526-20
 HOPO            7.6111-9 9.4836-9 1.1621-8 1.4027-8 1.6698-8 1.9628-8 2.2807-8 2.6216-8
 HPO             6.393-17 3.379-16 1.490-15 5.631-15 1.867-14 5.532-14 1.486-13 3.664-13
 *H2             8.6763-1 8.6763-1 8.6763-1 8.6763-1 8.6764-1 8.6764-1 8.6765-1 8.6766-1
 HCHO,formaldehy 2.981-15 2.043-14 1.135-13 5.285-13 2.115-12 7.435-12 2.335-11 6.645-11
 HCOOH           1.121-16 6.366-16 3.013-15 1.222-14 4.342-14 1.377-13 3.954-13 1.041-12
 H2F2            1.704-15 1.417-15 1.205-15 1.046-15 9.222-16 8.246-16 7.463-16 6.823-16
 H2O             8.5928-3 8.5928-3 8.5928-3 8.5928-3 8.5927-3 8.5926-3 8.5924-3 8.5920-3
 H2S             3.2968-4 3.2968-4 3.2968-4 3.2968-4 3.2968-4 3.2968-4 3.2967-4 3.2967-4
 *He             1.1837-1 1.1837-1 1.1837-1 1.1837-1 1.1837-1 1.1837-1 1.1837-1 1.1837-1
 *NH             2.255-26 8.520-25 2.152-23 3.865-22 5.178-21 5.373-20 4.454-19 3.025-18
 NH2             5.181-17 4.288-16 2.805-15 1.501-14 6.758-14 2.613-13 8.819-13 2.636-12
 NH3             3.9768-4 3.9706-4 3.9570-4 3.9302-4 3.8819-4 3.8021-4 3.6822-4 3.5180-4
 NH2OH           3.076-22 2.652-21 1.805-20 1.005-19 4.701-19 1.887-18 6.612-18 2.049-17
 *NO             5.821-26 1.860-24 4.062-23 6.420-22 7.683-21 7.215-20 5.470-19 3.428-18
 *N2             1.9675-7 5.0890-7 1.1871-6 2.5266-6 4.9437-6 8.9298-6 1.4924-5 2.3129-5
 N2H2            1.581-24 2.501-23 2.915-22 2.615-21 1.868-20 1.088-19 5.278-19 2.165-18
 N2H4            2.359-20 1.294-19 5.876-19 2.267-18 7.574-18 2.219-17 5.758-17 1.334-16
 *OH             6.073-19 7.449-18 6.930-17 5.108-16 3.088-15 1.575-14 6.933-14 2.686-13
 *P              4.491-22 7.567-21 9.333-20 8.848-19 6.702-18 4.188-17 2.215-16 1.013-15
 PCL             1.141-23 8.719-23 5.328-22 2.695-21 1.160-20 4.345-20 1.443-19 4.316-19
 PF              1.785-24 1.339-23 8.045-23 4.009-22 1.703-21 6.304-21 2.073-20 6.142-20
 PH              5.192-17 4.000-16 2.457-15 1.247-14 5.378-14 2.017-13 6.702-13 2.004-12
 PH2             3.366-11 9.448-11 2.364-10 5.368-10 1.122 -9 2.184 -9 3.998 -9 6.934 -9
 PH3             3.4996-6 3.4977-6 3.4954-6 3.4927-6 3.4894-6 3.4854-6 3.4804-6 3.4739-6
 PN              2.949-17 2.182-16 1.295-15 6.371-15 2.661-14 9.622-14 3.056-13 8.638-13
 PO              3.426-17 2.399-16 1.358-15 6.425-15 2.607-14 9.272-14 2.941-13 8.437-13
 PO2             9.743-20 6.335-19 3.368-18 1.510-17 5.851-17 1.999-16 6.124-16 1.705-15
 PS              4.564-16 2.190-15 8.857-15 3.097-14 9.568-14 2.656-13 6.717-13 1.566-12
 P2              1.000-14 3.646-14 1.153-13 3.232-13 8.172-13 1.890-12 4.042-12 8.077-12
 P2O3            1.447-17 2.476-17 4.052-17 6.371-17 9.667-17 1.421-16 2.028-16 2.821-16
 P2O4            6.207-22 1.050-21 1.707-21 2.682-21 4.080-21 6.032-21 8.683-21 1.220-20
 P3              2.775-23 1.877-22 1.031-21 4.752-21 1.882-20 6.539-20 2.027-19 5.686-19
 P4              2.936-19 5.305-19 9.036-19 1.461-18 2.256-18 3.343-18 4.775-18 6.597-18
 *S              5.129-21 7.600-20 8.372-19 7.182-18 4.980-17 2.876-16 1.418-15 6.092-15
 SH              5.063-13 2.214-12 8.229-12 2.667-11 7.688-11 2.005-10 4.795-10 1.063 -9
 SN              1.035-24 2.221-23 3.401-22 3.911-21 3.512-20 2.541-19 1.519-18 7.661-18
 SO              3.583-21 4.125-20 3.638-19 2.561-18 1.488-17 7.330-17 3.130-16 1.180-15
 SO2             8.211-21 5.772-20 3.293-19 1.574-18 6.470-18 2.336-17 7.531-17 2.201-16
 S2              8.870-17 4.309-16 1.762-15 6.232-15 1.946-14 5.464-14 1.398-13 3.300-13
 S2O             2.286-23 1.919-22 1.280-21 7.036-21 3.275-20 1.322-19 4.714-19 1.509-18
 S3              8.412-24 5.918-23 3.372-22 1.607-21 6.575-21 2.359-20 7.551-20 2.188-19

  * THERMODYNAMIC PROPERTIES FITTED TO 20000.K

    PRODUCTS WHICH WERE CONSIDERED BUT WHOSE MOLE FRACTIONS
    WERE LESS THAN 1.000000E-20 FOR ALL ASSIGNED CONDITIONS

 BrCL            BrF             BrF3            BrF5            BrO            
 OBrO            BrOO            BrO3            Br2             BrBrO          
 BrOBr           *C              CBr             CBr2            CBr3           
 CBr4            CCL             CCLBr3          CCL2            CCL2Br2        
 CCL3            CCL3Br          CCL4            CF              CFBr3          
 CFCL            CFCLBr2         CFCL2           CFCL2Br         CFCL3          
 CF2             CF2Br2          CF2CL           CF2CLBr         CF2CL2         
 CF3             CF3Br           CF3CL           CF4             *CH            
 CHBr3           CHCL            CHCLBr2         CHCL2           CHCL2Br        
 CHCL3           CHF             CHFBr2          CHFCL           CHFCLBr        
 CHFCL2          CHF2            CHF2Br          CHF2CL          CHF3           
 CH2Br2          CH2CLBr         CH2CL2          CH2F            CH2FBr         
 CH2FCL          CH2F2           CH3OOH          *CN             CNN            
 COCL            COCL2           COFCL           COF2            CP             
 *C2             C2CL            C2CL2           C2CL3           C2CL4          
 C2CL6           C2F             C2FCL           C2FCL3          C2F2           
 C2F2CL2         C2F3            C2F3CL          C2F4            C2F6           
 C2H             C2HCL           C2HCL3          C2HF            C2HFCL2        
 C2HF2CL         C2HF3           C2H2,vinylidene C2H2CL2         C2H2FCL        
 C2H2F2          O(CH)2O         HO(CO)2OH       CH2Br-COOH      CH2CL-COOH     
 C2H3F           OHCH2COOH       CH3N2CH3        CH3O2CH3        CCN            
 CNC             OCCN            C2N2            C2O             C2S2           
 *C3             C3H3,1-propynl  C3H3,2-propynl  C3H4,cyclo-     C3H6O,propylox 
 CNCOCN          C3OS            C3O2            C3S2            *C4            
 C4H2,butadiyne  C4H4,1,3-cyclo- C4H6,butadiene  C4H6,1butyne    C4H6,2butyne   
 C4H6,cyclo-     C4H8,cyclo-     (CH3COOH)2      C4H9,n-butyl    C4H9,i-butyl   
 C4H9,s-butyl    C4H9,t-butyl    C4N2            *C5             C5H6,1,3cyclo- 
 C5H8,cyclo-     C5H10,1-pentene C5H10,cyclo-    C5H11,pentyl    C5H11,t-pentyl 
 C5H12,n-pentane C5H12,i-pentane CH3C(CH3)2CH3   C6H2            C6H5,phenyl    
 C6H5O,phenoxy   C6H6            C6H5OH,phenol   C6H10,cyclo-    C6H12,1-hexene 
 C6H12,cyclo-    C6H13,n-hexyl   C6H14,n-hexane  C7H7,benzyl     C7H8           
 C7H8O,cresol-mx C7H14,1-heptene C7H15,n-heptyl  C7H16,n-heptane C7H16,2-methylh
 C8H8,styrene    C8H10,ethylbenz C8H16,1-octene  C8H17,n-octyl   C8H18,n-octane 
 C8H18,isooctane C9H19,n-nonyl   C10H8,naphthale C10H21,n-decyl  C12H9,o-bipheny
 C12H10,biphenyl CLCN            CLF             CLF3            CLF5           
 CLO             CLO2            CL2             CL2O            *F             
 FCN             FCO             FO              FO2,FOO         FO2,OFO        
 F2              F2O             F2O2            FS2F            HCCN           
 HCCO            HNO2            HNO3            HOCL            HOF            
 HO2             HSO3F           H2O2            H2SO4           H3F3           
 (HCOOH)2        H4F4            H5F5            H6F6            H7F7           
 *N              NCO             NF              NF2             NF3            
 NHF             NHF2            NH2F            NOCL            NOF            
 NOF3            NO2             NO2CL           NO2F            NO3            
 NO3F            NCN             N2F2            N2F4            NH2NO2         
 N2O             N2O3            N2O4            N2O5            N3             
 N3H             *O              *O2             O3              PCL2           
 PCL3            PCL5            PFCL            PFCL2           PFCL4          
 PF2             PF2CL           PF2CL3          PF3             PF3CL2         
 PF4CL           PF5             POCL3           POFCL2          POF2CL         
 POF3            P2O5            P3O6            P4O6            P4O7           
 P4O8            P4O9            P4O10           SCL             SCL2           
 SF              SF2             SF3             SF4             SF5            
 SF6             SOF2            SO2CL2          SO2FCL          SO2F2          
 SO3             S2CL2           S2F2            S4              S5             
 S6              S7              S8              Br2(cr)         Br2(L)         
 C(gr)           H2O(cr)         H2O(L)          H2SO4(L)        H3PO4(cr)      
 H3PO4(L)        NH4CL(II)       NH4CL(III)      NH4F(cr)        NH4F(L)        
 P(cr)           P(L)            P4O10(cr)       P4O10(L)        S(a)           
 S(b)            S(L)            SCL2(L)         S2CL2(L)       






 POINT ITN      T            H           HE          C           N 
                    S           P           O           F           CL
                    BR
   1    3    1200.000      -6.103     -12.996      -8.654     -14.874
                 -19.642     -16.730     -36.341     -55.104     -36.403
                 -39.039
   2    4    1250.000      -6.158     -13.073      -8.360     -14.782
                 -19.604     -16.796     -35.404     -54.063     -36.091
                 -38.953

 SINGULAR MATRIX, ITERATION  1  VARIABLE 10(EQLBRM)
   3   25     800.000      -5.500     -12.084     -12.740     -17.028
                 -20.320     -16.291     -48.205     -68.198     -40.408
                 -40.104
   4    2     850.000      -5.568     -12.181     -12.041     -16.623
                 -20.181     -16.362     -46.097     -65.850     -39.662
                 -39.975
   5    2     900.000      -5.635     -12.275     -11.423     -16.266
                 -20.062     -16.432     -44.228     -63.768     -39.004
                 -39.760
   6    2     950.000      -5.699     -12.367     -10.873     -15.953
                 -19.961     -16.500     -42.559     -61.910     -38.422
                 -39.572
   7    2    1000.000      -5.762     -12.456     -10.382     -15.679
                 -19.875     -16.568     -41.060     -60.243     -37.902
                 -39.409
   8    3    1050.000      -5.824     -12.542      -9.941     -15.440
                 -19.802     -16.635     -39.707     -58.739     -37.437
                 -39.267




               THERMODYNAMIC EQUILIBRIUM PROPERTIES AT ASSIGNED

                           TEMPERATURE AND PRESSURE

 CASE = saturn         

             REACTANT                       MOLES         ENERGY      TEMP
                                                         KJ/KG-MOL      K
 NAME        H2                           1.0000000         0.000      0.000
 NAME        He                           0.1350000         0.000      0.000
 NAME        CH4                          0.0053300         0.000      0.000
 NAME        N2                           0.0002270         0.000      0.000
 NAME        H2S                          0.0003760         0.000      0.000
 NAME        PH3                          0.0000040         0.000      0.000
 NAME        O2                           0.0049000         0.000      0.000
 NAME        HF                           0.0000001         0.000      0.000
 NAME        HCL                          0.0000006         0.000      0.000
 NAME        HBr                          0.0000000         0.000      0.000

 O/F=    0.00000  %FUEL=  0.000000  R,EQ.RATIO=*********  PHI,EQ.RATIO= 0.000000

 THERMODYNAMIC PROPERTIES

 P, BAR            369.74   369.74   455.55   455.55   455.55   455.55   455.55   455.55
 T, K             1200.00  1250.00   800.00   850.00   900.00   950.00  1000.00  1050.00
 RHO, KG/CU M    9.1555 0 8.7890 0 1.6922 1 1.5926 1 1.5041 1 1.4250 1 1.3537 1 1.2892 1
 H, KJ/KG         9551.33  10164.0  4785.83  5370.51  5957.70  6547.73  7141.06  7737.89
 U, KJ/KG         5512.86  5957.16  2093.70  2510.12  2929.05  3350.82  3775.88  4204.43
 G, KJ/KG        -51379.4 -53930.7 -31414.2 -33694.6 -36009.5 -38357.1 -40735.8 -43144.3
 S, KJ/(KG)(K)    50.7756  51.2758  45.2501  45.9590  46.6302  47.2682  47.8769  48.4593

 M, (1/n)           2.471    2.471    2.471    2.471    2.471    2.471    2.471    2.471
 (dLV/dLP)t      -1.00010 -1.00012 -1.00000 -1.00000 -1.00000 -1.00001 -1.00001 -1.00002
 (dLV/dLT)p        1.0006   1.0007   1.0000   1.0000   1.0000   1.0000   1.0001   1.0001
 Cp, KJ/(KG)(K)   12.2110  12.2967  11.6703  11.7178  11.7710  11.8318  11.9033  11.9711
 GAMMAs            1.3809   1.3773   1.4052   1.4029   1.4004   1.3975   1.3942   1.3911
 SON VEL,M/SEC     2361.5   2407.1   1945.0   2003.2   2059.4   2113.7   2166.0   2217.1

 MOLE FRACTIONS

 *Br             2.818-15 5.203-15 1.422-18 4.795-18 1.576-17 4.577-17 1.197-16 2.859-16
 CH2             6.649-18 4.462-17 2.492-28 1.654-26 6.904-25 1.949-23 3.943-22 5.994-21
 CH2CL           6.187-19 2.037-18 1.976-25 2.692-24 2.754-23 2.212-22 1.446-21 7.915-21
 CH2F            5.423-21 2.012-20 3.937-28 6.956-27 8.975-26 8.873-25 6.992-24 4.534-23
 CH3             1.002 -9 2.491 -9 1.019-14 7.591-14 4.532-13 2.243-12 9.467-12 3.483-11
 CH3Br           1.482-15 2.034-15 3.289-17 5.792-17 1.070-16 1.855-16 3.049-16 4.786-16
 CH3CL           3.828-13 5.498-13 4.278-15 9.399-15 1.896-14 3.560-14 6.285-14 1.052-13
 CH3F            3.347-15 5.281-15 1.156-17 3.124-17 7.581-17 1.678-16 3.436-16 6.578-16
 CH2OH           2.874-15 1.001-14 4.633-22 7.103-21 8.077-20 7.137-19 5.086-18 3.012-17
 CH3O            6.212-17 2.491-16 1.868-24 3.820-23 5.626-22 6.277-21 5.529-20 3.974-19
 CH4             4.6720-3 4.6702-3 4.6735-3 4.6735-3 4.6734-3 4.6734-3 4.6734-3 4.6734-3
 CH3OH           3.955-10 6.415-10 9.789-13 2.803-12 7.161-12 1.660-11 3.545-11 7.052-11
 *CN             5.229-21 5.030-20 8.207-34 1.381-31 1.322-29 7.854-28 3.099-26 8.582-25
 *CO             1.088 -6 2.690 -6 9.367-12 6.713-11 3.889-10 1.882 -9 7.802 -9 2.832 -8
 COHCL           9.088-19 2.626-18 1.460-24 1.452-23 1.127-22 7.096-22 3.734-21 1.684-20
 COHF            1.747-18 4.461-18 1.323-23 1.001-22 6.092-22 3.085-21 1.334-20 5.040-20
 COS             1.793-11 4.395-11 1.885-16 1.290-15 7.199-15 3.379-14 1.367-13 4.862-13
 *CO2            7.837 -9 1.700 -8 3.910-13 2.028-12 8.851-12 3.335-11 1.108-10 3.301-10
 COOH            4.957-17 2.194-16 3.659-25 9.178-24 1.625-22 2.143-21 2.197-20 1.814-19
 CS              1.244-15 6.005-15 2.424-24 7.660-23 1.658-21 2.608-20 3.123-19 2.957-18
 CS2             4.965-15 1.410-14 8.063-21 7.695-20 5.767-19 3.521-18 1.804-17 7.939-17
 C2H2,acetylene  9.953-14 5.030-13 1.145-22 3.944-21 9.241-20 1.563-18 2.001-17 2.017-16
 C2H2,vinylidene 6.402-21 6.734-20 7.317-34 1.289-31 1.287-29 7.946-28 3.259-26 9.405-25
 CH2CO,ketene    2.081-14 9.282-14 1.215-22 3.116-21 5.635-20 7.575-19 7.902-18 6.625-17
 O(CH)2O         1.691-21 1.081-20 1.273-31 6.920-30 2.452-28 6.044-27 1.093-25 1.512-24
 C2H3,vinyl      1.051-17 6.853-17 5.264-28 3.232-26 1.263-24 3.370-23 6.494-22 9.457-21
 C2H3CL          2.957-19 9.343-19 1.543-25 1.869-24 1.731-23 1.276-22 7.745-22 3.974-21
 C2H3F           5.310-21 1.802-20 1.137-27 1.611-26 1.715-25 1.433-24 9.731-24 5.527-23
 CH3CN           4.784-13 1.430-12 1.980-19 2.476-18 2.358-17 1.781-16 1.100-15 5.704-15
 CH3CO,acetyl    1.503-17 7.765-17 1.585-26 5.600-25 1.345-23 2.331-22 3.057-21 3.154-20
 C2H4            3.923-10 9.358-10 6.370-15 4.247-14 2.305-13 1.051-12 4.129-12 1.427-11
 C2H4O,ethylen-o 1.073-19 4.562-19 1.424-27 3.286-26 5.398-25 6.654-24 6.418-23 5.013-22
 CH3CHO,ethanal  1.403-13 3.780-13 5.441-19 4.624-18 3.124-17 1.737-16 8.181-16 3.338-15
 CH3COOH         3.377-16 8.670-16 2.892-21 2.094-20 1.234-19 6.109-19 2.603-18 9.747-18
 C2H5            6.819-14 2.095-13 5.139-20 6.013-19 5.376-18 3.828-17 2.245-16 1.115-15
 C2H5Br          3.652-20 6.390-20 4.278-23 1.250-22 3.635-22 9.504-22 2.267-21 4.997-21
 C2H6            1.935 -8 2.600 -8 5.039-10 9.512-10 1.679 -9 2.798 -9 4.439 -9 6.752 -9
 C2H5OH          2.183-14 4.380-14 4.172-18 1.851-17 7.011-17 2.323-16 6.860-16 1.835-15
 CH3OCH3         2.352-17 5.747-17 3.789-22 2.606-21 1.457-20 6.832-20 2.758-19 9.782-19
 C3H3,2-propynl  5.311-21 5.771-20 4.050-34 7.402-32 7.680-30 4.934-28 2.105-26 6.311-25
 C3H4,allene     5.578-18 3.370-17 7.268-28 3.646-26 1.197-24 2.744-23 4.630-22 5.997-21
 C3H4,propyne    1.814-17 1.067-16 3.252-27 1.544-25 4.826-24 1.058-22 1.715-21 2.141-20
 C3H5,allyl      2.667-18 1.439-17 1.641-27 6.359-26 1.661-24 3.105-23 4.363-22 4.791-21
 C3H6,propylene  3.384-14 9.947-14 4.341-20 4.482-19 3.602-18 2.341-17 1.268-16 5.874-16
 C3H6,cyclo-     2.998-17 1.009-16 7.342-24 1.012-22 1.052-21 8.619-21 5.756-20 3.224-19
 C3H6O,acetone   1.020-17 3.127-17 8.292-24 9.198-23 7.901-22 5.463-21 3.136-20 1.533-19
 C3H6O,propanal  1.519-18 5.390-18 2.081-25 3.144-24 3.560-23 3.157-22 2.270-21 1.362-20
 C3H7,n-propyl   8.583-19 3.460-18 2.359-26 4.891-25 7.301-24 8.256-23 7.364-22 5.354-21
 C3H7,i-propyl   1.130-18 4.349-18 5.318-26 1.007-24 1.386-23 1.454-22 1.212-21 8.274-21
 C3H8            2.706-13 4.721-13 2.934-16 9.581-16 2.765-15 7.182-15 1.704-14 3.740-14
 C3H8O,1propanol 2.906-19 7.524-19 2.452-24 1.869-23 1.149-22 5.887-22 2.581-21 9.887-21
 C3H8O,2propanol 4.541-19 1.114-18 7.814-24 5.225-23 2.865-22 1.327-21 5.316-21 1.880-20
 C4H6,butadiene  2.052-20 1.285-19 1.972-30 1.025-28 3.494-27 8.329-26 1.462-24 1.969-23
 C4H8,1-butene   4.440-19 1.693-18 2.390-26 4.268-25 5.604-24 5.671-23 4.590-22 3.063-21
 C4H8,cis2-buten 2.728-19 9.972-19 2.410-26 3.959-25 4.820-24 4.553-23 3.461-22 2.181-21
 C4H8,tr2-butene 3.094-19 1.128-18 2.884-26 4.679-25 5.641-24 5.286-23 3.991-22 2.501-21
 C4H8,isobutene  4.214-19 1.503-18 5.184-26 8.006-25 9.240-24 8.327-23 6.071-22 3.686-21
 C4H10,n-butane  3.759-18 8.547-18 1.640-22 9.312-22 4.416-21 1.796-20 6.401-20 2.035-19
 C4H10,isobutane 1.680-18 3.691-18 1.141-22 5.982-22 2.645-21 1.010-20 3.406-20 1.030-19
 *CL             5.294-15 1.278-14 8.366-20 5.733-19 3.180-18 1.476-17 5.889-17 2.063-16
 CLCN            3.839-21 1.615-20 2.261-29 5.986-28 1.110-26 1.523-25 1.609-24 1.356-23
 *H              9.568 -9 2.344 -8 1.265-13 8.948-13 5.105-12 2.430-11 9.911-11 3.542-10
 HBr             6.076-10 6.076-10 6.860-10 6.077-10 6.076-10 6.076-10 6.076-10 6.076-10
 HCN             5.139-10 1.448 -9 4.240-16 4.728-15 4.056-14 2.784-13 1.576-12 7.535-12
 HCO             2.668-14 1.205-13 1.371-22 3.714-21 7.010-20 9.753-19 1.046-17 8.978-17
 HCL             5.5411-7 5.5410-7 5.5415-7 5.5415-7 5.5415-7 5.5415-7 5.5415-7 5.5414-7
 *HF             6.3653-8 6.3651-8 6.3723-8 6.3657-8 6.3657-8 6.3657-8 6.3657-8 6.3656-8
 HNC             2.111-12 7.649-12 7.551-20 1.464-18 2.054-17 2.190-16 1.843-15 1.262-14
 HNCO            1.586-12 4.412-12 1.652-18 1.753-17 1.443-16 9.567-16 5.259-15 2.454-14
 HNO             8.316-20 3.891-19 1.528-28 5.210-27 1.204-25 2.004-24 2.516-23 2.473-22
 HOCL            1.798-20 5.184-20 3.428-26 3.475-25 2.730-24 1.731-23 9.138-23 4.125-22
 HOPO            2.9832-8 3.3624-8 6.1800-9 7.7012-9 9.4382-9 1.1393-8 1.3565-8 1.5949-8
 HPO             8.380-13 1.793-12 5.191-17 2.744-16 1.210-15 4.574-15 1.517-14 4.495-14
 *H2             8.6767-1 8.6769-1 8.6763-1 8.6763-1 8.6763-1 8.6763-1 8.6764-1 8.6764-1
 HCHO,formaldehy 1.735-10 4.194-10 2.419-15 1.658-14 9.214-14 4.289-13 1.717-12 6.035-12
 HCOOH           2.539-12 5.783-12 9.100-17 5.167-16 2.445-15 9.917-15 3.524-14 1.117-13
 H2F2            6.295-16 5.854-16 2.104-15 1.746-15 1.485-15 1.288-15 1.136-15 1.016-15
 H2O             8.5911-3 8.5892-3 8.5928-3 8.5928-3 8.5928-3 8.5928-3 8.5928-3 8.5927-3
 H2O2            2.607-20 1.088-19 5.149-28 1.163-26 1.865-25 2.242-24 2.109-23 1.606-22
 H2S             3.2966-4 3.2965-4 3.2968-4 3.2968-4 3.2968-4 3.2968-4 3.2968-4 3.2968-4
 *He             1.1836-1 1.1836-1 1.1837-1 1.1837-1 1.1837-1 1.1837-1 1.1837-1 1.1837-1
 NCO             2.428-21 1.872-20 6.880-33 6.846-31 4.128-29 1.627-27 4.457-26 8.898-25
 *NH             1.721-17 8.369-17 1.831-26 6.921-25 1.750-23 3.151-22 4.238-21 4.427-20
 NH2             7.063-12 1.717-11 4.669-17 3.867-16 2.532-15 1.358-14 6.139-14 2.389-13
 NH3             3.3130-4 3.0780-4 3.9782-4 3.9740-4 3.9651-4 3.9472-4 3.9145-4 3.8595-4
 NH2OH           5.691-17 1.433-16 3.077-22 2.654-21 1.809-20 1.009-19 4.741-19 1.916-18
 *NO             1.814-17 8.261-17 4.258-26 1.361-24 2.976-23 4.715-22 5.666-21 5.355-20
 *N2             3.3372-5 4.5120-5 1.2970-7 3.3582-7 7.8517-7 1.6788-6 3.3117-6 6.0615-6
 N2H2            7.628-18 2.347-17 1.284-24 2.034-23 2.376-22 2.141-21 1.541-20 9.102-20
 N2H4            2.783-16 5.288-16 2.361-20 1.296-19 5.900-19 2.287-18 7.702-18 2.287-17
 *O              8.517-21 6.384-20 8.982-32 7.388-30 3.740-28 1.257-26 2.984-25 5.252-24
 *OH             9.299-13 2.917-12 5.471-19 6.711-18 6.244-17 4.602-16 2.782-15 1.419-14
 *P              4.077-15 1.466-14 3.285-22 5.536-21 6.829-20 6.474-19 4.905-18 3.065-17
 PCL             1.177-18 2.960-18 9.261-24 7.080-23 4.327-22 2.189-21 9.422-21 3.530-20
 PF              1.661-19 4.147-19 1.451-24 1.087-23 6.534-23 3.256-22 1.383-21 5.123-21
 PF2             1.053-20 1.232-20 1.400-21 1.941-21 2.609-21 3.411-21 4.350-21 5.431-21
 PH              5.462-12 1.372-11 4.216-17 3.248-16 1.996-15 1.013-14 4.369-14 1.639-13
 PH2             1.147 -8 1.820 -8 3.033-11 8.516-11 2.131-10 4.840-10 1.012 -9 1.970 -9
 PH3             3.4657-6 3.4550-6 3.5011-6 3.4995-6 3.4976-6 3.4954-6 3.4927-6 3.4893-6
 PN              2.197-12 5.089-12 1.944-17 1.439-16 8.555-16 4.219-15 1.770-14 6.441-14
 PO              2.217-12 5.388-12 2.506-17 1.755-16 9.936-16 4.701-15 1.908-14 6.787-14
 PO2             4.362-15 1.036-14 7.127-20 4.635-19 2.464-18 1.105-17 4.282-17 1.463-16
 PS              3.400-12 6.928-12 3.338-16 1.602-15 6.480-15 2.267-14 7.003-14 1.944-13
 P2              1.519-11 2.709-11 6.596-15 2.404-14 7.605-14 2.133-13 5.393-13 1.248-12
 P2O3            3.829-16 5.081-16 9.541-18 1.633-17 2.673-17 4.203-17 6.380-17 9.380-17
 P2O4            1.675-20 2.250-20 4.092-22 6.922-22 1.126-21 1.769-21 2.693-21 3.983-21
 P3              1.459-18 3.460-18 1.649-23 1.115-22 6.132-22 2.827-21 1.120-20 3.894-20
 P4              8.838-18 1.151-17 1.572-19 2.842-19 4.843-19 7.836-19 1.211-18 1.796-18
 *S              2.320-14 7.945-14 4.163-21 6.168-20 6.795-19 5.829-18 4.042-17 2.334-16
 SCL             8.932-21 2.732-20 7.274-27 8.405-26 7.424-25 5.227-24 3.034-23 1.492-22
 SH              2.207 -9 4.320 -9 4.561-13 1.995-12 7.414-12 2.402-11 6.926-11 1.806-10
 SN              3.319-17 1.257-16 7.569-25 1.625-23 2.492-22 2.872-21 2.590-20 1.886-19
 SO              3.991-15 1.225-14 2.908-21 3.348-20 2.953-19 2.078-18 1.208-17 5.949-17
 SO2             5.897-16 1.464-15 6.664-21 4.685-20 2.673-19 1.278-18 5.252-18 1.896-17
 S2              7.255-13 1.498-12 7.199-17 3.497-16 1.430-15 5.058-15 1.580-14 4.435-14
 S2O             4.390-18 1.175-17 1.855-23 1.557-22 1.039-21 5.711-21 2.659-20 1.073-19
 S3              5.809-19 1.427-18 6.827-24 4.803-23 2.737-22 1.304-21 5.337-21 1.915-20

  * THERMODYNAMIC PROPERTIES FITTED TO 20000.K

    PRODUCTS WHICH WERE CONSIDERED BUT WHOSE MOLE FRACTIONS
    WERE LESS THAN 1.000000E-20 FOR ALL ASSIGNED CONDITIONS

 BrCL            BrF             BrF3            BrF5            BrO            
 OBrO            BrOO            BrO3            Br2             BrBrO          
 BrOBr           *C              CBr             CBr2            CBr3           
 CBr4            CCL             CCLBr3          CCL2            CCL2Br2        
 CCL3            CCL3Br          CCL4            CF              CFBr3          
 CFCL            CFCLBr2         CFCL2           CFCL2Br         CFCL3          
 CF2             CF2Br2          CF2CL           CF2CLBr         CF2CL2         
 CF3             CF3Br           CF3CL           CF4             *CH            
 CHBr3           CHCL            CHCLBr2         CHCL2           CHCL2Br        
 CHCL3           CHF             CHFBr2          CHFCL           CHFCLBr        
 CHFCL2          CHF2            CHF2Br          CHF2CL          CHF3           
 CH2Br2          CH2CLBr         CH2CL2          CH2FBr          CH2FCL         
 CH2F2           CH3OOH          CNN             COCL            COCL2          
 COFCL           COF2            CP              *C2             C2CL           
 C2CL2           C2CL3           C2CL4           C2CL6           C2F            
 C2FCL           C2FCL3          C2F2            C2F2CL2         C2F3           
 C2F3CL          C2F4            C2F6            C2H             C2HCL          
 C2HCL3          C2HF            C2HFCL2         C2HF2CL         C2HF3          
 C2H2CL2         C2H2FCL         C2H2F2          HO(CO)2OH       CH2Br-COOH     
 CH2CL-COOH      OHCH2COOH       CH3N2CH3        CH3O2CH3        CCN            
 CNC             OCCN            C2N2            C2O             C2S2           
 *C3             C3H3,1-propynl  C3H4,cyclo-     C3H6O,propylox  CNCOCN         
 C3OS            C3O2            C3S2            *C4             C4H2,butadiyne 
 C4H4,1,3-cyclo- C4H6,1butyne    C4H6,2butyne    C4H6,cyclo-     C4H8,cyclo-    
 (CH3COOH)2      C4H9,n-butyl    C4H9,i-butyl    C4H9,s-butyl    C4H9,t-butyl   
 C4N2            *C5             C5H6,1,3cyclo-  C5H8,cyclo-     C5H10,1-pentene
 C5H10,cyclo-    C5H11,pentyl    C5H11,t-pentyl  C5H12,n-pentane C5H12,i-pentane
 CH3C(CH3)2CH3   C6H2            C6H5,phenyl     C6H5O,phenoxy   C6H6           
 C6H5OH,phenol   C6H10,cyclo-    C6H12,1-hexene  C6H12,cyclo-    C6H13,n-hexyl  
 C6H14,n-hexane  C7H7,benzyl     C7H8            C7H8O,cresol-mx C7H14,1-heptene
 C7H15,n-heptyl  C7H16,n-heptane C7H16,2-methylh C8H8,styrene    C8H10,ethylbenz
 C8H16,1-octene  C8H17,n-octyl   C8H18,n-octane  C8H18,isooctane C9H19,n-nonyl  
 C10H8,naphthale C10H21,n-decyl  C12H9,o-bipheny C12H10,biphenyl CLF            
 CLF3            CLF5            CLO             CLO2            CL2            
 CL2O            *F              FCN             FCO             FO             
 FO2,FOO         FO2,OFO         F2              F2O             F2O2           
 FS2F            HCCN            HCCO            HNO2            HNO3           
 HOF             HO2             HSO3F           H2SO4           H3F3           
 (HCOOH)2        H4F4            H5F5            H6F6            H7F7           
 *N              NF              NF2             NF3             NHF            
 NHF2            NH2F            NOCL            NOF             NOF3           
 NO2             NO2CL           NO2F            NO3             NO3F           
 NCN             N2F2            N2F4            NH2NO2          N2O            
 N2O3            N2O4            N2O5            N3              N3H            
 *O2             O3              PCL2            PCL3            PCL5           
 PFCL            PFCL2           PFCL4           PF2CL           PF2CL3         
 PF3             PF3CL2          PF4CL           PF5             POCL3          
 POFCL2          POF2CL          POF3            P2O5            P3O6           
 P4O6            P4O7            P4O8            P4O9            P4O10          
 SCL2            SF              SF2             SF3             SF4            
 SF5             SF6             SOF2            SO2CL2          SO2FCL         
 SO2F2           SO3             S2CL2           S2F2            S4             
 S5              S6              S7              S8              Br2(cr)        
 Br2(L)          C(gr)           H2O(cr)         H2O(L)          H2SO4(L)       
 H3PO4(cr)       H3PO4(L)        NH4CL(II)       NH4CL(III)      NH4F(cr)       
 NH4F(L)         P(cr)           P(L)            P4O10(cr)       P4O10(L)       
 S(a)            S(b)            S(L)            SCL2(L)         S2CL2(L)       






 POINT ITN      T            H           HE          C           N 
                    S           P           O           F           CL
                    BR
   1    3    1100.000      -5.883     -12.626      -9.545     -15.236
                 -19.739     -16.701     -38.480     -57.375     -37.019
                 -39.141
   2    3    1150.000      -5.942     -12.708      -9.187     -15.065
                 -19.686     -16.766     -37.363     -56.134     -36.641
                 -39.031
   3    3    1200.000      -5.998     -12.788      -8.863     -14.926
                 -19.642     -16.832     -36.341     -55.000     -36.298
                 -38.934
   4    3    1250.000      -6.053     -12.865      -8.568     -14.817
                 -19.604     -16.898     -35.404     -53.959     -35.986
                 -38.849

 SINGULAR MATRIX, ITERATION  1  VARIABLE 10(EQLBRM)
   5   25     800.000      -5.401     -11.887     -12.937     -17.127
                 -20.320     -16.390     -48.205     -68.100     -40.310
                 -40.042
   6    2     850.000      -5.469     -11.984     -12.239     -16.721
                 -20.181     -16.461     -46.097     -65.751     -39.563
                 -39.877
   7    2     900.000      -5.536     -12.078     -11.621     -16.364
                 -20.062     -16.530     -44.228     -63.669     -38.905
                 -39.661
   8    2     950.000      -5.600     -12.169     -11.071     -16.049
                 -19.961     -16.599     -42.559     -61.811     -38.323
                 -39.474




               THERMODYNAMIC EQUILIBRIUM PROPERTIES AT ASSIGNED

                           TEMPERATURE AND PRESSURE

 CASE = saturn         

             REACTANT                       MOLES         ENERGY      TEMP
                                                         KJ/KG-MOL      K
 NAME        H2                           1.0000000         0.000      0.000
 NAME        He                           0.1350000         0.000      0.000
 NAME        CH4                          0.0053300         0.000      0.000
 NAME        N2                           0.0002270         0.000      0.000
 NAME        H2S                          0.0003760         0.000      0.000
 NAME        PH3                          0.0000040         0.000      0.000
 NAME        O2                           0.0049000         0.000      0.000
 NAME        HF                           0.0000001         0.000      0.000
 NAME        HCL                          0.0000006         0.000      0.000
 NAME        HBr                          0.0000000         0.000      0.000

 O/F=    0.00000  %FUEL=  0.000000  R,EQ.RATIO=*********  PHI,EQ.RATIO= 0.000000

 THERMODYNAMIC PROPERTIES

 P, BAR            455.55   455.55   455.55   455.55   555.05   555.05   555.05   555.05
 T, K             1100.00  1150.00  1200.00  1250.00   800.00   850.00   900.00   950.00
 RHO, KG/CU M    1.2306 1 1.1771 1 1.1280 1 1.0829 1 2.0618 1 1.9405 1 1.8327 1 1.7362 1
 H, KJ/KG         8338.29  8942.55  9550.89  10163.4  4785.83  5370.50  5957.69  6547.71
 U, KJ/KG         4636.54  5072.49  5512.49  5956.67  2093.70  2510.12  2929.04  3350.80
 G, KJ/KG        -45581.4 -48045.8 -50536.5 -53052.8 -30882.4 -33129.5 -35411.2 -37725.5
 S, KJ/(KG)(K)    49.0179  49.5551  50.0729  50.5729  44.5853  45.2942  45.9654  46.6034

 M, (1/n)           2.471    2.471    2.471    2.471    2.471    2.471    2.471    2.471
 (dLV/dLP)t      -1.00004 -1.00006 -1.00008 -1.00010 -1.00000 -1.00000 -1.00000 -1.00000
 (dLV/dLT)p        1.0002   1.0003   1.0005   1.0006   1.0000   1.0000   1.0000   1.0000
 Cp, KJ/(KG)(K)   12.0459  12.1254  12.2083  12.2935  11.6703  11.7177  11.7708  11.8315
 GAMMAs            1.3878   1.3844   1.3809   1.3774   1.4052   1.4029   1.4004   1.3975
 SON VEL,M/SEC     2266.6   2314.7   2361.5   2407.1   1945.0   2003.2   2059.4   2113.7

 MOLE FRACTIONS

 *Br             6.318-16 1.305-15 2.538-15 4.688-15 1.242-18 4.344-18 1.428-17 4.147-17
 CH2             7.115-20 6.810-19 5.398-18 3.622-17 2.046-28 1.358-26 5.667-25 1.600-23
 CH2CL           3.716-20 1.526-19 5.574-19 1.836-18 1.790-25 2.439-24 2.495-23 2.004-22
 CH2F            2.484-22 1.175-21 4.886-21 1.813-20 3.564-28 6.302-27 8.131-26 8.038-25
 CH3             1.138-10 3.355-10 9.032-10 2.245 -9 9.229-15 6.877-14 4.105-13 2.032-12
 CH3Br           7.215-16 1.050-15 1.482-15 2.034-15 3.171-17 5.792-17 1.070-16 1.855-16
 CH3CL           1.682-13 2.583-13 3.829-13 5.500-13 4.278-15 9.399-15 1.896-14 3.560-14
 CH3F            1.188-15 2.039-15 3.347-15 5.282-15 1.155-17 3.124-17 7.581-17 1.678-16
 CH2OH           1.520-16 6.670-16 2.589-15 9.021-15 4.198-22 6.435-21 7.318-20 6.466-19
 CH3O            2.396-18 1.239-17 5.597-17 2.245-16 1.692-24 3.461-23 5.097-22 5.687-21
 CH4             4.6732-3 4.6730-3 4.6725-3 4.6713-3 4.6735-3 4.6735-3 4.6734-3 4.6734-3
 CH3OH           1.319-10 2.339-10 3.956-10 6.417-10 9.789-13 2.803-12 7.161-12 1.660-11
 *CN             1.744-23 2.696-22 3.272-21 3.199-20 5.009-34 8.432-32 8.080-30 4.806-28
 *CO             9.162 -8 2.679 -7 7.167 -7 1.772 -6 6.310-12 4.522-11 2.620-10 1.268 -9
 COHCL           6.641-20 2.330-19 7.378-19 2.133-18 1.198-24 1.192-23 9.252-23 5.824-22
 COHF            1.692-19 5.125-19 1.418-18 3.622-18 1.085-23 8.212-23 5.000-22 2.532-21
 COS             1.547-12 4.464-12 1.181-11 2.897-11 1.270-16 8.689-16 4.849-15 2.276-14
 *CO2            8.944-10 2.230 -9 5.164 -9 1.121 -8 2.634-13 1.366-12 5.962-12 2.247-11
 COOH            1.241-18 7.209-18 3.625-17 1.605-16 2.720-25 6.824-24 1.208-22 1.593-21
 CS              2.285-17 1.479-16 8.195-16 3.957-15 1.633-24 5.160-23 1.117-21 1.757-20
 CS2             3.063-16 1.053-15 3.271-15 9.288-15 5.431-21 5.183-20 3.885-19 2.372-18
 C2H2,acetylene  1.651-15 1.127-14 6.558-14 3.315-13 7.714-23 2.657-21 6.225-20 1.053-18
 C2H2,vinylidene 2.001-23 3.265-22 4.219-21 4.438-20 4.929-34 8.683-32 8.666-30 5.353-28
 CH2CO,ketene    4.595-16 2.700-15 1.371-14 6.119-14 8.181-23 2.099-21 3.796-20 5.102-19
 C2H3,vinyl      1.081-19 9.999-19 7.684-18 5.013-17 3.914-28 2.403-26 9.393-25 2.506-23
 C2H3CL          1.762-20 6.880-20 2.401-19 7.587-19 1.266-25 1.534-24 1.421-23 1.047-22
 C2H3F           2.689-22 1.143-21 4.311-21 1.464-20 9.328-28 1.322-26 1.408-25 1.176-24
 CH3CN           2.531-14 9.764-14 3.322-13 1.010-12 1.334-19 1.668-18 1.590-17 1.203-16
 CH3CO,acetyl    2.642-19 1.846-18 1.099-17 5.682-17 1.178-26 4.164-25 1.000-23 1.733-22
 C2H4            4.411-11 1.237-10 3.185-10 7.599-10 5.228-15 3.485-14 1.892-13 8.626-13
 C2H4O,ethylen-o 3.260-21 1.808-20 8.708-20 3.705-19 1.169-27 2.697-26 4.431-25 5.461-24
 CH3CHO,ethanal  1.202-14 3.883-14 1.139-13 3.070-13 4.466-19 3.795-18 2.564-17 1.426-16
 CH3COOH         3.260-17 9.877-17 2.742-16 7.042-16 2.374-21 1.719-20 1.013-19 5.014-19
 C2H5            4.788-15 1.813-14 6.145-14 1.888-13 4.656-20 5.448-19 4.870-18 3.468-17
 C2H5Br          1.028-20 1.990-20 3.653-20 6.393-20 4.125-23 1.250-22 3.635-22 9.504-22
 C2H6            9.896 -9 1.404 -8 1.936 -8 2.601 -8 5.039-10 9.512-10 1.679 -9 2.798 -9
 C2H5OH          4.504-15 1.025-14 2.183-14 4.383-14 4.172-18 1.851-17 7.011-17 2.323-16
 CH3OCH3         3.102-18 8.919-18 2.353-17 5.750-17 3.789-22 2.606-21 1.457-20 6.832-20
 C3H3,2-propynl  1.394-23 2.357-22 3.153-21 3.428-20 2.471-34 4.517-32 4.687-30 3.011-28
 C3H4,allene     6.175-20 5.204-19 3.676-18 2.222-17 4.896-28 2.456-26 8.062-25 1.849-23
 C3H4,propyne    2.131-19 1.741-18 1.195-17 7.035-17 2.191-27 1.040-25 3.251-24 7.129-23
 C3H5,allyl      4.249-20 3.126-19 1.951-18 1.053-17 1.220-27 4.728-26 1.235-24 2.309-23
 C3H6,propylene  2.374-15 8.512-15 2.748-14 8.079-14 3.563-20 3.679-19 2.957-18 1.921-17
 C3H6,cyclo-     1.549-18 6.514-18 2.434-17 8.195-17 6.026-24 8.305-23 8.637-22 7.074-21
 C3H6O,acetone   6.517-19 2.452-18 8.278-18 2.540-17 6.805-24 7.549-23 6.485-22 4.483-21
 C3H6O,propanal  6.981-20 3.118-19 1.233-18 4.378-18 1.708-25 2.580-24 2.922-23 2.591-22
 C3H7,n-propyl   3.260-20 1.700-19 7.735-19 3.119-18 2.137-26 4.431-25 6.615-24 7.480-23
 C3H7,i-propyl   4.755-20 2.351-19 1.018-18 3.921-18 4.818-26 9.125-25 1.255-23 1.318-22
 C3H8            7.664-14 1.479-13 2.707-13 4.724-13 2.934-16 9.581-16 2.765-15 7.182-15
 C3H8O,1propanol 3.368-20 1.036-19 2.907-19 7.531-19 2.453-24 1.869-23 1.149-22 5.887-22
 C3H8O,2propanol 5.958-20 1.716-19 4.542-19 1.115-18 7.814-24 5.225-23 2.865-22 1.327-21
 C4H6,butadiene  2.108-22 1.845-21 1.353-20 8.472-20 1.328-30 6.903-29 2.353-27 5.611-26
 C4H8,1-butene   1.729-20 8.423-20 3.605-19 1.375-18 1.962-26 3.503-25 4.600-24 4.654-23
 C4H8,cis2-buten 1.167-20 5.415-20 2.215-19 8.102-19 1.978-26 3.249-25 3.956-24 3.737-23
 C4H8,tr2-butene 1.333-20 6.161-20 2.512-19 9.167-19 2.367-26 3.840-25 4.630-24 4.338-23
 C4H8,isobutene  1.909-20 8.595-20 3.422-19 1.221-18 4.255-26 6.571-25 7.583-24 6.834-23
 C4H10,n-butane  5.854-19 1.543-18 3.761-18 8.555-18 1.640-22 9.312-22 4.416-21 1.796-20
 C4H10,isobutane 2.831-19 7.158-19 1.681-18 3.694-18 1.141-22 5.982-22 2.645-21 1.010-20
 *CL             6.455-16 1.831-15 4.769-15 1.151-14 7.579-20 5.193-19 2.881-18 1.337-17
 CLCN            9.362-23 5.410-22 2.666-21 1.140-20 1.523-29 4.034-28 7.489-27 1.028-25
 *H              1.129 -9 3.259 -9 8.619 -9 2.111 -8 1.146-13 8.106-13 4.625-12 2.201-11
 HBr             6.076-10 6.076-10 6.076-10 6.076-10 6.615-10 6.076-10 6.076-10 6.076-10
 HCN             3.103-11 1.118-10 3.569-10 1.023 -9 2.857-16 3.187-15 2.736-14 1.880-13
 HCO             6.347-16 3.789-15 1.951-14 8.812-14 1.020-22 2.761-21 5.212-20 7.252-19
 HCL             5.5414-7 5.5413-7 5.5412-7 5.5411-7 5.5415-7 5.5415-7 5.5415-7 5.5415-7
 *HF             6.3656-8 6.3655-8 6.3654-8 6.3653-8 6.3676-8 6.3657-8 6.3657-8 6.3657-8
 HNC             7.200-14 3.494-13 1.466-12 5.401-12 5.088-20 9.866-19 1.385-17 1.479-16
 HNCO            9.897-14 3.502-13 1.101-12 3.115-12 1.113-18 1.182-17 9.734-17 6.462-16
 HNO             1.961-21 1.286-20 7.115-20 3.384-19 1.254-28 4.278-27 9.898-26 1.649-24
 HOCL            1.626-21 5.694-21 1.798-20 5.185-20 3.428-26 3.475-25 2.730-24 1.731-23
 HOPO            1.8537-8 2.1314-8 2.4264-8 2.7364-8 5.0737-9 6.3232-9 7.7501-9 9.3565-9
 HPO             1.208-13 2.979-13 6.815-13 1.459-12 4.262-17 2.253-16 9.934-16 3.757-15
 *H2             8.6764-1 8.6765-1 8.6766-1 8.6768-1 8.6763-1 8.6763-1 8.6763-1 8.6763-1
 HCHO,formaldehy 1.895-11 5.394-11 1.408-10 3.405-10 1.986-15 1.361-14 7.562-14 3.521-13
 HCOOH           3.209-13 8.450-13 2.061-12 4.696-12 7.469-17 4.241-16 2.007-15 8.139-15
 H2F2            9.195-16 8.407-16 7.757-16 7.212-16 2.560-15 2.127-15 1.810-15 1.570-15
 H2O             8.5925-3 8.5922-3 8.5916-3 8.5904-3 8.5928-3 8.5928-3 8.5928-3 8.5928-3
 H2O2            1.020-21 5.529-21 2.608-20 1.088-19 5.149-28 1.163-26 1.865-25 2.242-24
 H2S             3.2968-4 3.2967-4 3.2967-4 3.2966-4 3.2968-4 3.2968-4 3.2968-4 3.2968-4
 *He             1.1837-1 1.1837-1 1.1836-1 1.1836-1 1.1837-1 1.1837-1 1.1837-1 1.1837-1
 NCO             1.347-23 1.595-22 1.519-21 1.191-20 4.200-33 4.180-31 2.522-29 9.959-28
 *NH             3.706-19 2.549-18 1.472-17 7.278-17 1.503-26 5.683-25 1.438-23 2.593-22
 NH2             8.144-13 2.465-12 6.707-12 1.658-11 4.231-17 3.505-16 2.297-15 1.234-14
 NH3             3.7741-4 3.6522-4 3.4921-4 3.2980-4 3.9790-4 3.9762-4 3.9702-4 3.9580-4
 NH2OH           6.777-18 2.128-17 5.999-17 1.536-16 3.078-22 2.656-21 1.811-20 1.012-19
 *NO             4.099-19 2.603-18 1.398-17 6.474-17 3.167-26 1.013-24 2.216-23 3.515-22
 *N2             1.0329-5 1.6422-5 2.4425-5 3.4125-5 8.7402-8 2.2646-7 5.3026-7 1.1371-6
 N2H2            4.500-19 1.894-18 6.878-18 2.187-17 1.054-24 1.671-23 1.955-22 1.767-21
 N2H4            6.049-17 1.438-16 3.092-16 6.071-16 2.362-20 1.298-19 5.915-19 2.300-18
 *O              7.141-23 7.753-22 6.913-21 5.183-20 7.372-32 6.064-30 3.069-28 1.032-26
 *OH             6.246-14 2.420-13 8.378-13 2.628-12 4.957-19 6.079-18 5.656-17 4.169-16
 *P              1.621-16 7.417-16 2.987-15 1.075-14 2.443-22 4.118-21 5.080-20 4.817-19
 PCL             1.173-19 3.509-19 9.574-19 2.408-18 7.603-24 5.813-23 3.553-22 1.797-21
 PF              1.684-20 4.993-20 1.351-19 3.374-19 1.191-24 8.927-24 5.365-23 2.674-22
 PF2             6.654-21 8.014-21 9.508-21 1.113-20 1.267-21 1.759-21 2.365-21 3.092-21
 PH              5.447-13 1.629-12 4.442-12 1.116-11 3.461-17 2.667-16 1.639-15 8.319-15
 PH2             3.606 -9 6.257 -9 1.035 -8 1.643 -8 2.749-11 7.718-11 1.932-10 4.387-10
 PH3             3.4851-6 3.4796-6 3.4725-6 3.4632-6 3.5022-6 3.5009-6 3.4993-6 3.4975-6
 PN              2.066-13 5.917-13 1.529-12 3.600-12 1.310-17 9.703-17 5.773-16 2.851-15
 PO              2.153-13 6.180-13 1.624-12 3.950-12 1.864-17 1.305-16 7.392-16 3.498-15
 PO2             4.484-16 1.249-15 3.197-15 7.594-15 5.301-20 3.447-19 1.833-18 8.220-18
 PS              4.918-13 1.147-12 2.491-12 5.078-12 2.483-16 1.192-15 4.821-15 1.686-14
 P2              2.670-12 5.338-12 1.005-11 1.793-11 4.446-15 1.621-14 5.128-14 1.438-13
 P2O3            1.340-16 1.864-16 2.533-16 3.364-16 6.431-18 1.101-17 1.802-17 2.835-17
 P2O4            5.736-21 8.063-21 1.108-20 1.490-20 2.758-22 4.666-22 7.593-22 1.193-21
 P3              1.208-19 3.391-19 8.711-19 2.068-18 1.007-23 6.815-23 3.748-22 1.728-21
 P4              2.567-18 3.550-18 4.763-18 6.214-18 8.705-20 1.574-19 2.683-19 4.342-19
 *S              1.151-15 4.945-15 1.883-14 6.449-14 3.417-21 5.063-20 5.577-19 4.784-18
 SCL             6.355-22 2.389-21 8.048-21 2.462-20 6.590-27 7.614-26 6.726-25 4.735-24
 SH              4.320-10 9.579-10 1.988 -9 3.892 -9 4.132-13 1.807-12 6.717-12 2.176-11
 SN              1.139-18 5.816-18 2.558-17 9.845-17 5.629-25 1.209-23 1.855-22 2.141-21
 SO              2.541-16 9.581-16 3.239-15 9.946-15 2.387-21 2.748-20 2.423-19 1.706-18
 SO2             6.113-17 1.786-16 4.787-16 1.188-15 5.470-21 3.845-20 2.193-19 1.049-18
 S2              1.135-13 2.678-13 5.889-13 1.216-12 5.909-17 2.870-16 1.174-15 4.151-15
 S2O             3.826-19 1.225-18 3.564-18 9.537-18 1.523-23 1.278-22 8.529-22 4.687-21
 S3              6.129-20 1.776-19 4.715-19 1.159-18 5.604-24 3.942-23 2.246-22 1.070-21

  * THERMODYNAMIC PROPERTIES FITTED TO 20000.K

    PRODUCTS WHICH WERE CONSIDERED BUT WHOSE MOLE FRACTIONS
    WERE LESS THAN 1.000000E-20 FOR ALL ASSIGNED CONDITIONS

 BrCL            BrF             BrF3            BrF5            BrO            
 OBrO            BrOO            BrO3            Br2             BrBrO          
 BrOBr           *C              CBr             CBr2            CBr3           
 CBr4            CCL             CCLBr3          CCL2            CCL2Br2        
 CCL3            CCL3Br          CCL4            CF              CFBr3          
 CFCL            CFCLBr2         CFCL2           CFCL2Br         CFCL3          
 CF2             CF2Br2          CF2CL           CF2CLBr         CF2CL2         
 CF3             CF3Br           CF3CL           CF4             *CH            
 CHBr3           CHCL            CHCLBr2         CHCL2           CHCL2Br        
 CHCL3           CHF             CHFBr2          CHFCL           CHFCLBr        
 CHFCL2          CHF2            CHF2Br          CHF2CL          CHF3           
 CH2Br2          CH2CLBr         CH2CL2          CH2FBr          CH2FCL         
 CH2F2           CH3OOH          CNN             COCL            COCL2          
 COFCL           COF2            CP              *C2             C2CL           
 C2CL2           C2CL3           C2CL4           C2CL6           C2F            
 C2FCL           C2FCL3          C2F2            C2F2CL2         C2F3           
 C2F3CL          C2F4            C2F6            C2H             C2HCL          
 C2HCL3          C2HF            C2HFCL2         C2HF2CL         C2HF3          
 C2H2CL2         C2H2FCL         C2H2F2          O(CH)2O         HO(CO)2OH      
 CH2Br-COOH      CH2CL-COOH      OHCH2COOH       CH3N2CH3        CH3O2CH3       
 CCN             CNC             OCCN            C2N2            C2O            
 C2S2            *C3             C3H3,1-propynl  C3H4,cyclo-     C3H6O,propylox 
 CNCOCN          C3OS            C3O2            C3S2            *C4            
 C4H2,butadiyne  C4H4,1,3-cyclo- C4H6,1butyne    C4H6,2butyne    C4H6,cyclo-    
 C4H8,cyclo-     (CH3COOH)2      C4H9,n-butyl    C4H9,i-butyl    C4H9,s-butyl   
 C4H9,t-butyl    C4N2            *C5             C5H6,1,3cyclo-  C5H8,cyclo-    
 C5H10,1-pentene C5H10,cyclo-    C5H11,pentyl    C5H11,t-pentyl  C5H12,n-pentane
 C5H12,i-pentane CH3C(CH3)2CH3   C6H2            C6H5,phenyl     C6H5O,phenoxy  
 C6H6            C6H5OH,phenol   C6H10,cyclo-    C6H12,1-hexene  C6H12,cyclo-   
 C6H13,n-hexyl   C6H14,n-hexane  C7H7,benzyl     C7H8            C7H8O,cresol-mx
 C7H14,1-heptene C7H15,n-heptyl  C7H16,n-heptane C7H16,2-methylh C8H8,styrene   
 C8H10,ethylbenz C8H16,1-octene  C8H17,n-octyl   C8H18,n-octane  C8H18,isooctane
 C9H19,n-nonyl   C10H8,naphthale C10H21,n-decyl  C12H9,o-bipheny C12H10,biphenyl
 CLF             CLF3            CLF5            CLO             CLO2           
 CL2             CL2O            *F              FCN             FCO            
 FO              FO2,FOO         FO2,OFO         F2              F2O            
 F2O2            FS2F            HCCN            HCCO            HNO2           
 HNO3            HOF             HO2             HSO3F           H2SO4          
 H3F3            (HCOOH)2        H4F4            H5F5            H6F6           
 H7F7            *N              NF              NF2             NF3            
 NHF             NHF2            NH2F            NOCL            NOF            
 NOF3            NO2             NO2CL           NO2F            NO3            
 NO3F            NCN             N2F2            N2F4            NH2NO2         
 N2O             N2O3            N2O4            N2O5            N3             
 N3H             *O2             O3              PCL2            PCL3           
 PCL5            PFCL            PFCL2           PFCL4           PF2CL          
 PF2CL3          PF3             PF3CL2          PF4CL           PF5            
 POCL3           POFCL2          POF2CL          POF3            P2O5           
 P3O6            P4O6            P4O7            P4O8            P4O9           
 P4O10           SCL2            SF              SF2             SF3            
 SF4             SF5             SF6             SOF2            SO2CL2         
 SO2FCL          SO2F2           SO3             S2CL2           S2F2           
 S4              S5              S6              S7              S8             
 Br2(cr)         Br2(L)          C(gr)           H2O(cr)         H2O(L)         
 H2SO4(L)        H3PO4(cr)       H3PO4(L)        NH4CL(II)       NH4CL(III)     
 NH4F(cr)        NH4F(L)         P(cr)           P(L)            P4O10(cr)      
 P4O10(L)        S(a)            S(b)            S(L)            SCL2(L)        
 S2CL2(L)       






 POINT ITN      T            H           HE          C           N 
                    S           P           O           F           CL
                    BR
   1    2    1000.000      -5.663     -12.258     -10.580     -15.772
                 -19.875     -16.666     -41.060     -60.144     -37.804
                 -39.310
   2    2    1050.000      -5.725     -12.345     -10.139     -15.529
                 -19.802     -16.732     -39.707     -58.640     -37.339
                 -39.168
   3    3    1100.000      -5.785     -12.429      -9.742     -15.318
                 -19.739     -16.798     -38.480     -57.276     -36.920
                 -39.043
   4    3    1150.000      -5.843     -12.511      -9.384     -15.138
                 -19.686     -16.864     -37.363     -56.035     -36.542
                 -38.933
   5    3    1200.000      -5.899     -12.590      -9.060     -14.987
                 -19.642     -16.929     -36.341     -54.901     -36.200
                 -38.836
   6    3    1250.000      -5.955     -12.667      -8.766     -14.864
                 -19.604     -16.995     -35.404     -53.860     -35.888
                 -38.750

 SINGULAR MATRIX, ITERATION  1  VARIABLE 10(EQLBRM)
   7   25     800.000      -5.307     -11.699     -13.125     -17.221
                 -20.320     -16.483     -48.205     -68.006     -40.216
                 -40.004
   8    2     850.000      -5.375     -11.796     -12.426     -16.814
                 -20.181     -16.554     -46.097     -65.657     -39.469
                 -39.783




               THERMODYNAMIC EQUILIBRIUM PROPERTIES AT ASSIGNED

                           TEMPERATURE AND PRESSURE

 CASE = saturn         

             REACTANT                       MOLES         ENERGY      TEMP
                                                         KJ/KG-MOL      K
 NAME        H2                           1.0000000         0.000      0.000
 NAME        He                           0.1350000         0.000      0.000
 NAME        CH4                          0.0053300         0.000      0.000
 NAME        N2                           0.0002270         0.000      0.000
 NAME        H2S                          0.0003760         0.000      0.000
 NAME        PH3                          0.0000040         0.000      0.000
 NAME        O2                           0.0049000         0.000      0.000
 NAME        HF                           0.0000001         0.000      0.000
 NAME        HCL                          0.0000006         0.000      0.000
 NAME        HBr                          0.0000000         0.000      0.000

 O/F=    0.00000  %FUEL=  0.000000  R,EQ.RATIO=*********  PHI,EQ.RATIO= 0.000000

 THERMODYNAMIC PROPERTIES

 P, BAR            555.05   555.05   555.05   555.05   555.05   555.05   669.65   669.65
 T, K             1000.00  1050.00  1100.00  1150.00  1200.00  1250.00   800.00   850.00
 RHO, KG/CU M    1.6494 1 1.5708 1 1.4994 1 1.4342 1 1.3745 1 1.3195 1 2.4874 1 2.3411 1
 H, KJ/KG         7141.01  7737.80  8338.14  8942.33  9550.56  10163.0  4785.82  5370.50
 U, KJ/KG         3775.84  4204.35  4636.42  5072.31  5512.22  5956.31  2093.70  2510.12
 G, KJ/KG        -40071.0 -42446.3 -44850.1 -47281.2 -49738.7 -52221.7 -30377.1 -32592.7
 S, KJ/(KG)(K)    47.2120  47.7944  48.3529  48.8900  49.4078  49.9077  43.9536  44.6625

 M, (1/n)           2.471    2.471    2.471    2.471    2.471    2.471    2.471    2.471
 (dLV/dLP)t      -1.00001 -1.00002 -1.00003 -1.00004 -1.00006 -1.00008 -1.00000 -1.00000
 (dLV/dLT)p        1.0001   1.0001   1.0002   1.0003   1.0004   1.0005   1.0000   1.0000
 Cp, KJ/(KG)(K)   11.9027  11.9702  12.0445  12.1236  12.2061  12.2908  11.6703  11.7176
 GAMMAs            1.3942   1.3912   1.3879   1.3844   1.3809   1.3774   1.4052   1.4029
 SON VEL,M/SEC     2166.0   2217.1   2266.6   2314.7   2361.5   2407.1   1945.0   2003.2

 MOLE FRACTIONS

 *Br             1.084-16 2.590-16 5.724-16 1.182-15 2.300-15 4.247-15 1.069-18 3.954-18
 CH2             3.236-22 4.919-21 5.840-20 5.590-19 4.430-18 2.974-17 1.696-28 1.125-26
 CH2CL           1.310-21 7.170-21 3.367-20 1.383-19 5.051-19 1.663-18 1.630-25 2.220-24
 CH2F            6.334-24 4.108-23 2.251-22 1.065-21 4.427-21 1.643-20 3.244-28 5.737-27
 CH3             8.576-12 3.156-11 1.031-10 3.040-10 8.183-10 2.034 -9 8.403-15 6.261-14
 CH3Br           3.049-16 4.786-16 7.215-16 1.050-15 1.482-15 2.035-15 2.998-17 5.792-17
 CH3CL           6.285-14 1.052-13 1.682-13 2.583-13 3.829-13 5.501-13 4.278-15 9.399-15
 CH3F            3.436-16 6.578-16 1.188-15 2.039-15 3.347-15 5.283-15 1.154-17 3.124-17
 CH2OH           4.607-18 2.729-17 1.377-16 6.043-16 2.346-15 8.175-15 3.822-22 5.859-21
 CH3O            5.009-20 3.601-19 2.171-18 1.122-17 5.071-17 2.035-16 1.541-24 3.151-23
 CH4             4.6734-3 4.6734-3 4.6733-3 4.6731-3 4.6728-3 4.6719-3 4.6735-3 4.6735-3
 CH3OH           3.545-11 7.052-11 1.319-10 2.339-10 3.956-10 6.419-10 9.789-13 2.803-12
 *CN             1.901-26 5.289-25 1.082-23 1.689-22 2.073-21 2.055-20 3.134-34 5.276-32
 *CO             5.256 -9 1.908 -8 6.172 -8 1.805 -7 4.828 -7 1.194 -6 4.335-12 3.107-11
 COHCL           3.064-21 1.382-20 5.451-20 1.913-19 6.056-19 1.751-18 9.932-25 9.878-24
 COHF            1.095-20 4.136-20 1.389-19 4.207-19 1.164-18 2.974-18 8.992-24 6.807-23
 COS             9.206-14 3.275-13 1.042-12 3.007-12 7.960-12 1.952-11 8.722-17 5.969-16
 *CO2            7.464-11 2.224-10 6.025-10 1.502 -9 3.479 -9 7.551 -9 1.810-13 9.386-13
 COOH            1.633-20 1.349-19 9.229-19 5.361-18 2.696-17 1.194-16 2.053-25 5.150-24
 CS              2.104-19 1.992-18 1.540-17 9.965-17 5.521-16 2.666-15 1.122-24 3.545-23
 CS2             1.215-17 5.348-17 2.063-16 7.095-16 2.204-15 6.258-15 3.731-21 3.561-20
 C2H2,acetylene  1.348-17 1.358-16 1.112-15 7.591-15 4.418-14 2.234-13 5.300-23 1.825-21
 C2H2,vinylidene 2.196-26 6.335-25 1.348-23 2.199-22 2.842-21 2.991-20 3.386-34 5.965-32
 CH2CO,ketene    5.323-18 4.463-17 3.095-16 1.819-15 9.237-15 4.123-14 5.621-23 1.442-21
 C2H3,vinyl      4.828-22 7.032-21 8.037-20 7.435-19 5.714-18 3.729-17 2.954-28 1.814-26
 C2H3CL          6.357-22 3.261-21 1.446-20 5.647-20 1.971-19 6.229-19 1.050-25 1.272-24
 C2H3F           7.987-24 4.537-23 2.207-22 9.379-22 3.539-21 1.202-20 7.730-28 1.096-26
 CH3CN           7.452-16 3.880-15 1.733-14 6.750-14 2.324-13 7.160-13 9.165-20 1.147-18
 CH3CO,acetyl    2.273-21 2.345-20 1.965-19 1.373-18 8.173-18 4.226-17 8.893-27 3.142-25
 C2H4            3.389-12 1.171-11 3.620-11 1.015-10 2.614-10 6.239-10 4.333-15 2.889-14
 C2H4O,ethylen-o 5.267-23 4.114-22 2.676-21 1.484-20 7.149-20 3.042-19 9.690-28 2.236-26
 CH3CHO,ethanal  6.714-16 2.739-15 9.867-15 3.187-14 9.352-14 2.521-13 3.701-19 3.146-18
 CH3COOH         2.137-18 8.000-18 2.676-17 8.107-17 2.251-16 5.783-16 1.968-21 1.424-20
 C2H5            2.034-16 1.010-15 4.338-15 1.643-14 5.568-14 1.711-13 4.239-20 4.960-19
 C2H5Br          2.267-21 4.997-21 1.028-20 1.990-20 3.653-20 6.395-20 3.900-23 1.250-22
 C2H6            4.439 -9 6.752 -9 9.897 -9 1.404 -8 1.936 -8 2.602 -8 5.039-10 9.512-10
 C2H5OH          6.860-16 1.835-15 4.504-15 1.025-14 2.184-14 4.385-14 4.172-18 1.851-17
 CH3OCH3         2.758-19 9.782-19 3.102-18 8.920-18 2.353-17 5.752-17 3.789-22 2.606-21
 C3H3,2-propynl  1.284-26 3.851-25 8.507-24 1.439-22 1.925-21 2.093-20 1.546-34 2.825-32
 C3H4,allene     3.119-22 4.040-21 4.160-20 3.506-19 2.477-18 1.497-17 3.364-28 1.687-26
 C3H4,propyne    1.155-21 1.442-20 1.436-19 1.173-18 8.053-18 4.741-17 1.505-27 7.146-26
 C3H5,allyl      3.244-22 3.562-21 3.159-20 2.324-19 1.451-18 7.834-18 9.205-28 3.568-26
 C3H6,propylene  1.041-16 4.821-16 1.948-15 6.987-15 2.256-14 6.634-14 2.953-20 3.049-19
 C3H6,cyclo-     4.724-20 2.646-19 1.272-18 5.347-18 1.998-17 6.729-17 4.994-24 6.884-23
 C3H6O,acetone   2.574-20 1.258-19 5.349-19 2.012-18 6.796-18 2.086-17 5.641-24 6.258-23
 C3H6O,propanal  1.863-21 1.118-20 5.730-20 2.559-19 1.012-18 3.596-18 1.415-25 2.139-24
 C3H7,n-propyl   6.671-22 4.850-21 2.953-20 1.540-19 7.009-19 2.827-18 1.946-26 4.034-25
 C3H7,i-propyl   1.098-21 7.496-21 4.308-20 2.130-19 9.224-19 3.554-18 4.386-26 8.308-25
 C3H8            1.704-14 3.740-14 7.665-14 1.479-13 2.708-13 4.727-13 2.934-16 9.581-16
 C3H8O,1propanol 2.581-21 9.887-21 3.369-20 1.036-19 2.908-19 7.535-19 2.453-24 1.869-23
 C3H8O,2propanol 5.316-21 1.880-20 5.959-20 1.716-19 4.544-19 1.116-18 7.814-24 5.225-23
 C4H6,butadiene  9.846-25 1.326-23 1.420-22 1.243-21 9.114-21 5.710-20 9.127-31 4.743-29
 C4H8,1-butene   3.767-22 2.514-21 1.419-20 6.914-20 2.960-19 1.130-18 1.626-26 2.903-25
 C4H8,cis2-buten 2.841-22 1.790-21 9.580-21 4.445-20 1.818-19 6.653-19 1.640-26 2.693-25
 C4H8,tr2-butene 3.276-22 2.053-21 1.094-20 5.057-20 2.063-19 7.529-19 1.962-26 3.183-25
 C4H8,isobutene  4.983-22 3.026-21 1.567-20 7.055-20 2.809-19 1.003-18 3.527-26 5.446-25
 C4H10,n-butane  6.401-20 2.035-19 5.854-19 1.543-18 3.762-18 8.561-18 1.640-22 9.312-22
 C4H10,isobutane 3.406-20 1.030-19 2.831-19 7.159-19 1.681-18 3.696-18 1.141-22 5.982-22
 *CL             5.335-17 1.869-16 5.848-16 1.659-15 4.321-15 1.043-14 6.900-20 4.728-19
 *H              8.979-11 3.209-10 1.023 -9 2.952 -9 7.809 -9 1.913 -8 1.043-13 7.380-13
 HBr             6.076-10 6.076-10 6.076-10 6.076-10 6.076-10 6.076-10 6.254-10 6.076-10
 HCN             1.067-12 5.126-12 2.125-11 7.726-11 2.496-10 7.251-10 1.963-16 2.190-15
[...]
 PH2             5.693 -9 9.048 -9 1.542-11 4.331-11 1.084-10 2.463-10 5.152-10 1.004 -9
 PH3             3.4943-6 3.4900-6 3.5057-6 3.5053-6 3.5047-6 3.5041-6 3.5033-6 3.5021-6
 PN              1.541-13 3.819-13 1.294-18 9.591-18 5.716-17 2.832-16 1.198-15 4.421-15
 PO              2.666-13 6.492-13 3.284-18 2.300-17 1.303-16 6.167-16 2.505-15 8.915-15
 PO2             5.247-16 1.249-15 9.339-21 6.075-20 3.231-19 1.449-18 5.621-18 1.922-17
 PS              4.088-13 8.346-13 4.374-17 2.100-16 8.497-16 2.973-15 9.191-15 2.553-14
 P2              9.065-13 1.622-12 4.393-16 1.603-15 5.073-15 1.424-14 3.605-14 8.349-14
 P2O3            2.286-17 3.047-17 6.355-19 1.088-18 1.783-18 2.806-18 4.264-18 6.278-18
 P3              4.321-20 1.030-19 5.583-25 3.781-24 2.081-23 9.605-23 3.812-22 1.328-21
 P4              1.299-19 1.704-19 2.707-21 4.899-21 8.361-21 1.355-20 2.098-20 3.120-20
 *S              5.621-15 1.925-14 1.073-21 1.590-20 1.751-19 1.502-18 1.042-17 6.016-17
 SCL             4.397-21 1.345-20 3.693-27 4.267-26 3.769-25 2.654-24 1.540-23 7.574-23
 SH              1.086 -9 2.126 -9 2.316-13 1.013-12 3.764-12 1.220-11 3.516-11 9.171-11
 SN              4.690-18 1.897-17 9.911-26 2.130-24 3.273-23 3.788-22 3.442-21 2.541-20
 SO              9.671-16 2.970-15 7.495-22 8.630-21 7.610-20 5.357-19 3.113-18 1.533-17
 SO2             1.429-16 3.549-16 1.718-21 1.208-20 6.888-20 3.293-19 1.354-18 4.886-18
 S2              1.758-13 3.631-13 1.856-17 9.013-17 3.687-16 1.304-15 4.072-15 1.143-14
 S2O             1.064-18 2.848-18 4.782-24 4.014-23 2.679-22 1.472-21 6.853-21 2.766-20
 S3              1.408-19 3.459-19 1.760-24 1.238-23 7.053-23 3.362-22 1.376-21 4.935-21

  * THERMODYNAMIC PROPERTIES FITTED TO 20000.K

    PRODUCTS WHICH WERE CONSIDERED BUT WHOSE MOLE FRACTIONS
    WERE LESS THAN 1.000000E-20 FOR ALL ASSIGNED CONDITIONS

 BrCL            BrF             BrF3            BrF5            BrO            
 OBrO            BrOO            BrO3            Br2             BrBrO          
 BrOBr           *C              CBr             CBr2            CBr3           
 CBr4            CCL             CCLBr3          CCL2            CCL2Br2        
 CCL3            CCL3Br          CCL4            CF              CFBr3          
 CFCL            CFCLBr2         CFCL2           CFCL2Br         CFCL3          
 CF2             CF2Br2          CF2CL           CF2CLBr         CF2CL2         
 CF3             CF3Br           CF3CL           CF4             *CH            
 CHBr3           CHCL            CHCLBr2         CHCL2           CHCL2Br        
 CHCL3           CHF             CHFBr2          CHFCL           CHFCLBr        
 CHFCL2          CHF2            CHF2Br          CHF2CL          CHF3           
 CH2Br2          CH2CLBr         CH2CL2          CH2F            CH2FBr         
 CH2FCL          CH2F2           CH3OOH          *CN             CNN            
 COCL            COCL2           COFCL           COF2            CP             
 *C2             C2CL            C2CL2           C2CL3           C2CL4          
 C2CL6           C2F             C2FCL           C2FCL3          C2F2           
 C2F2CL2         C2F3            C2F3CL          C2F4            C2F6           
 C2H             C2HCL           C2HCL3          C2HF            C2HFCL2        
 C2HF2CL         C2HF3           C2H2,vinylidene C2H2CL2         C2H2FCL        
 C2H2F2          O(CH)2O         HO(CO)2OH       CH2Br-COOH      CH2CL-COOH     
 C2H3F           OHCH2COOH       CH3N2CH3        CH3O2CH3        CCN            
 CNC             OCCN            C2N2            C2O             C2S2           
 *C3             C3H3,1-propynl  C3H3,2-propynl  C3H4,cyclo-     C3H6O,propylox 
 CNCOCN          C3OS            C3O2            C3S2            *C4            
 C4H2,butadiyne  C4H4,1,3-cyclo- C4H6,butadiene  C4H6,1butyne    C4H6,2butyne   
 C4H6,cyclo-     C4H8,cyclo-     (CH3COOH)2      C4H9,n-butyl    C4H9,i-butyl   
 C4H9,s-butyl    C4H9,t-butyl    C4N2            *C5             C5H6,1,3cyclo- 
 C5H8,cyclo-     C5H10,1-pentene C5H10,cyclo-    C5H11,pentyl    C5H11,t-pentyl 
 C5H12,n-pentane C5H12,i-pentane CH3C(CH3)2CH3   C6H2            C6H5,phenyl    
 C6H5O,phenoxy   C6H6            C6H5OH,phenol   C6H10,cyclo-    C6H12,1-hexene 
 C6H12,cyclo-    C6H13,n-hexyl   C6H14,n-hexane  C7H7,benzyl     C7H8           
 C7H8O,cresol-mx C7H14,1-heptene C7H15,n-heptyl  C7H16,n-heptane C7H16,2-methylh
 C8H8,styrene    C8H10,ethylbenz C8H16,1-octene  C8H17,n-octyl   C8H18,n-octane 
 C8H18,isooctane C9H19,n-nonyl   C10H8,naphthale C10H21,n-decyl  C12H9,o-bipheny
 C12H10,biphenyl CLCN            CLF             CLF3            CLF5           
 CLO             CLO2            CL2             CL2O            *F             
 FCN             FCO             FO              FO2,FOO         FO2,OFO        
 F2              F2O             F2O2            FS2F            HCCN           
 HCCO            HNO2            HNO3            HOF             HO2            
 HSO3F           H2SO4           H3F3            (HCOOH)2        H4F4           
 H5F5            H6F6            H7F7            *N              NCO            
 NF              NF2             NF3             NHF             NHF2           
 NH2F            NOCL            NOF             NOF3            NO2            
 NO2CL           NO2F            NO3             NO3F            NCN            
 N2F2            N2F4            NH2NO2          N2O             N2O3           
 N2O4            N2O5            N3              N3H             *O2            
 O3              PCL2            PCL3            PCL5            PFCL           
 PFCL2           PFCL4           PF2             PF2CL           PF2CL3         
 PF3             PF3CL2          PF4CL           PF5             POCL3          
 POFCL2          POF2CL          POF3            P2O4            P2O5           
 P3O6            P4O6            P4O7            P4O8            P4O9           
 P4O10           SCL2            SF              SF2             SF3            
 SF4             SF5             SF6             SOF2            SO2CL2         
 SO2FCL          SO2F2           SO3             S2CL2           S2F2           
 S4              S5              S6              S7              S8             
 Br2(cr)         Br2(L)          C(gr)           H2O(cr)         H2O(L)         
 H2SO4(L)        H3PO4(cr)       H3PO4(L)        NH4CL(II)       NH4CL(III)     
 NH4F(cr)        NH4F(L)         P(cr)           P(L)            P4O10(cr)      
 P4O10(L)        S(a)            S(b)            S(L)            SCL2(L)        
 S2CL2(L)       






 POINT ITN      T            H           HE          C           N 
                    S           P           O           F           CL
                    BR
   1    2    1100.000      -5.205     -11.271     -10.901     -15.865
                 -19.739     -17.374     -38.480     -56.697     -36.341
                 -38.464
   2    2    1150.000      -5.264     -11.352     -10.542     -15.663
                 -19.686     -17.439     -37.363     -55.456     -35.963
                 -38.353
   3    2    1200.000      -5.320     -11.432     -10.218     -15.483
                 -19.642     -17.503     -36.341     -54.322     -35.620
                 -38.256
   4    2    1250.000      -5.376     -11.509      -9.924     -15.323
                 -19.604     -17.567     -35.404     -53.281     -35.309
                 -38.171




               THERMODYNAMIC EQUILIBRIUM PROPERTIES AT ASSIGNED

                           TEMPERATURE AND PRESSURE

 CASE = saturn         

             REACTANT                       MOLES         ENERGY      TEMP
                                                         KJ/KG-MOL      K
 NAME        H2                           1.0000000         0.000      0.000
 NAME        He                           0.1350000         0.000      0.000
 NAME        CH4                          0.0053300         0.000      0.000
 NAME        N2                           0.0002270         0.000      0.000
 NAME        H2S                          0.0003760         0.000      0.000
 NAME        PH3                          0.0000040         0.000      0.000
 NAME        O2                           0.0049000         0.000      0.000
 NAME        HF                           0.0000001         0.000      0.000
 NAME        HCL                          0.0000006         0.000      0.000
 NAME        HBr                          0.0000000         0.000      0.000

 O/F=    0.00000  %FUEL=  0.000000  R,EQ.RATIO=*********  PHI,EQ.RATIO= 0.000000

 THERMODYNAMIC PROPERTIES

 P, BAR           1767.42  1767.42  1767.42  1767.42
 T, K             1100.00  1150.00  1200.00  1250.00
 RHO, KG/CU M    4.7746 1 4.5670 1 4.3767 1 4.2017 1
 H, KJ/KG         8337.85  8941.85  9549.81  10161.9
 U, KJ/KG         4636.17  5071.90  5511.60  5955.39
 G, KJ/KG        -40562.7 -42799.0 -45061.6 -47349.6
 S, KJ/(KG)(K)    44.4550  44.9920  45.5095  46.0092

 M, (1/n)           2.471    2.471    2.471    2.471
 (dLV/dLP)t      -1.00000 -1.00001 -1.00001 -1.00001
 (dLV/dLT)p        1.0000   1.0000   1.0000   1.0001
 Cp, KJ/(KG)(K)   12.0414  12.1191  12.1999  12.2826
 GAMMAs            1.3879   1.3844   1.3809   1.3774
 SON VEL,M/SEC     2266.6   2314.7   2361.5   2407.1

 MOLE FRACTIONS

 *Br             3.208-16 6.624-16 1.289-15 2.380-15
 CH2             1.834-20 1.756-19 1.392-18 9.341-18
 CH2CL           1.887-20 7.750-20 2.831-19 9.324-19
 CH3             5.780-11 1.704-10 4.587-10 1.140 -9
 CH3Br           7.215-16 1.050-15 1.482-15 2.035-15
 CH3CL           1.682-13 2.583-13 3.830-13 5.503-13
 CH3F            1.188-15 2.039-15 3.348-15 5.285-15
 CH2OH           7.717-17 3.387-16 1.315-15 4.584-15
 CH3O            1.216-18 6.290-18 2.843-17 1.141-16
 CH4             4.6734-3 4.6734-3 4.6733-3 4.6733-3
 CH3OH           1.319-10 2.339-10 3.957-10 6.422-10
 *CO             6.0872-9 1.7800-8 4.7634-8 1.1785-7
 COHCL           1.712-20 6.008-20 1.902-19 5.502-19
 COHF            4.362-20 1.321-19 3.657-19 9.345-19
 COS             1.028-13 2.966-13 7.853-13 1.926-12
 *CO2            5.943-11 1.482-10 3.433-10 7.453-10
 COOH            1.624-19 9.436-19 4.747-18 2.103-17
 CS              1.518-18 9.829-18 5.446-17 2.630-16
 CS2             2.035-17 6.998-17 2.174-16 6.175-16
 C2H2,acetylene  1.097-16 7.487-16 4.359-15 2.205-14
 CH2CO,ketene    3.053-17 1.794-16 9.114-16 4.070-15
 C2H3,vinyl      1.415-20 1.309-19 1.006-18 6.566-18
 C2H3CL          4.543-21 1.774-20 6.192-20 1.958-19
 CH3CN           1.767-15 7.027-15 2.491-14 7.974-14
 CH3CO,acetyl    3.458-20 2.416-19 1.439-18 7.444-18
 C2H4            1.137-11 3.189-11 8.212-11 1.961-10
 C2H4O,ethylen-o 8.405-22 4.660-21 2.246-20 9.562-20
 CH3CHO,ethanal  3.099-15 1.001-14 2.938-14 7.923-14
 CH3COOH         8.404-18 2.547-17 7.073-17 1.818-16
 C2H5            2.431-15 9.206-15 3.121-14 9.596-14
 C2H5Br          1.028-20 1.991-20 3.655-20 6.400-20
 C2H6            9.8973-9 1.4044-8 1.9365-8 2.6033-8
 C2H5OH          4.505-15 1.025-14 2.185-14 4.388-14
 CH3OCH3         3.102-18 8.921-18 2.354-17 5.757-17
 C3H4,allene     4.103-21 3.458-20 2.444-19 1.478-18
 C3H4,propyne    1.416-20 1.157-19 7.946-19 4.680-18
 C3H5,allyl      5.561-21 4.092-20 2.555-19 1.380-18
 C3H6,propylene  6.119-16 2.195-15 7.087-15 2.085-14
 C3H6,cyclo-     3.994-19 1.679-18 6.278-18 2.115-17
 C3H6O,acetone   1.680-19 6.322-19 2.136-18 6.558-18
 C3H6O,propanal  1.800-20 8.040-20 3.181-19 1.130-18
 C3H7,n-propyl   1.655-20 8.633-20 3.929-19 1.586-18
 C3H7,i-propyl   2.414-20 1.194-19 5.172-19 1.993-18
 C3H8            7.666-14 1.480-13 2.709-13 4.731-13
 C3H8O,1propanol 3.369-20 1.036-19 2.910-19 7.543-19
 C3H8O,2propanol 5.959-20 1.717-19 4.546-19 1.117-18
 C4H8,1-butene   4.457-21 2.172-20 9.301-20 3.552-19
 C4H8,cis2-buten 3.009-21 1.396-20 5.714-20 2.092-19
 C4H8,tr2-butene 3.436-21 1.589-20 6.482-20 2.367-19
 C4H8,isobutene  4.920-21 2.216-20 8.828-20 3.154-19
 C4H10,n-butane  5.855-19 1.543-18 3.764-18 8.571-18
 C4H10,isobutane 2.831-19 7.161-19 1.682-18 3.701-18
 *CL             3.277-16 9.299-16 2.421-15 5.846-15
 *H              5.733-10 1.654 -9 4.376 -9 1.072 -8
 HBr             6.076-10 6.076-10 6.076-10 6.076-10
 HCN             2.166-12 8.043-12 2.676-11 8.073-11
 HCO             8.306-17 4.960-16 2.554-15 1.154-14
 HCL             5.5415-7 5.5415-7 5.5415-7 5.5415-7
 *HF             6.3657-8 6.3657-8 6.3657-8 6.3657-8
 HNC             5.027-15 2.514-14 1.099-13 4.263-13
 HNCO            6.909-15 2.520-14 8.259-14 2.460-13
 HNO             5.311-22 3.589-21 2.069-20 1.036-19
 HOCL            1.626-21 5.695-21 1.799-20 5.186-20
 HOPO            4.7997-9 5.5247-9 6.2982-9 7.1159-9
 HPO             3.127-14 7.721-14 1.769-13 3.792-13
 *H2             8.6763-1 8.6763-1 8.6763-1 8.6764-1
 HCHO,formaldehy 4.885-12 1.390-11 3.631-11 8.784-11
 HCOOH           8.273-14 2.179-13 5.315-13 1.212-12
 H2F2            3.567-15 3.262-15 3.010-15 2.799-15
 H2O             8.5928-3 8.5928-3 8.5927-3 8.5927-3
 H2O2            1.020-21 5.530-21 2.609-20 1.089-19
 H2S             3.2968-4 3.2968-4 3.2968-4 3.2968-4
 *He             1.1837-1 1.1837-1 1.1837-1 1.1837-1
 *NH             1.004-19 7.115-19 4.281-18 2.228-17
 NH2             4.344-13 1.355-12 3.841-12 9.996-12
 NH3             3.9656-4 3.9552-4 3.9394-4 3.9168-4
 NH2OH           7.121-18 2.304-17 6.768-17 1.825-16
 *NO             5.637-20 3.689-19 2.065-18 1.006-17
 *N2             7.5761-7 1.2796-6 2.0653-6 3.1981-6
 N2H2            1.281-19 5.724-19 2.256-18 7.952-18
 N2H4            6.678-17 1.686-16 3.936-16 8.564-16
 *O              1.841-23 1.999-22 1.782-21 1.336-20
 *OH             3.171-14 1.228-13 4.254-13 1.335-12
 *P              2.131-17 9.759-17 3.935-16 1.418-15
 PCL             3.037-20 9.094-20 2.484-19 6.258-19
 PF              4.361-21 1.294-20 3.506-20 8.769-20
 PH              1.410-13 4.222-13 1.153-12 2.901-12
 PH2             1.8391-9 3.1940-9 5.2922-9 8.4125-9
 PH3             3.5006-6 3.4986-6 3.4957-6 3.4917-6
 PN              1.449-14 4.281-14 1.154-13 2.865-13
 PO              2.830-14 8.132-14 2.140-13 5.213-13
 PO2             5.895-17 1.643-16 4.213-16 1.003-15
 PS              6.465-14 1.510-13 3.282-13 6.701-13
 P2              1.790-13 3.585-13 6.766-13 1.211-12
 P2O3            8.983-18 1.253-17 1.706-17 2.275-17
 P3              4.130-21 1.163-20 2.998-20 7.152-20
 P4              4.475-20 6.214-20 8.378-20 1.100-19
 *S              2.967-16 1.275-15 4.854-15 1.662-14
 SCL             3.226-22 1.213-21 4.086-21 1.250-20
 SH              2.193-10 4.863-10 1.009 -9 1.976 -9
 SN              1.566-19 8.242-19 3.777-18 1.530-17
 SO              6.550-17 2.470-16 8.352-16 2.565-15
 SO2             1.576-17 4.606-17 1.234-16 3.065-16
 S2              2.925-14 6.904-14 1.518-13 3.136-13
 S2O             9.863-20 3.157-19 9.189-19 2.459-18
 S3              1.580-20 4.578-20 1.216-19 2.987-19

  * THERMODYNAMIC PROPERTIES FITTED TO 20000.K

    PRODUCTS WHICH WERE CONSIDERED BUT WHOSE MOLE FRACTIONS
    WERE LESS THAN 1.000000E-20 FOR ALL ASSIGNED CONDITIONS

 BrCL            BrF             BrF3            BrF5            BrO            
 OBrO            BrOO            BrO3            Br2             BrBrO          
 BrOBr           *C              CBr             CBr2            CBr3           
 CBr4            CCL             CCLBr3          CCL2            CCL2Br2        
 CCL3            CCL3Br          CCL4            CF              CFBr3          
 CFCL            CFCLBr2         CFCL2           CFCL2Br         CFCL3          
 CF2             CF2Br2          CF2CL           CF2CLBr         CF2CL2         
 CF3             CF3Br           CF3CL           CF4             *CH            
 CHBr3           CHCL            CHCLBr2         CHCL2           CHCL2Br        
 CHCL3           CHF             CHFBr2          CHFCL           CHFCLBr        
 CHFCL2          CHF2            CHF2Br          CHF2CL          CHF3           
 CH2Br2          CH2CLBr         CH2CL2          CH2F            CH2FBr         
 CH2FCL          CH2F2           CH3OOH          *CN             CNN            
 COCL            COCL2           COFCL           COF2            CP             
 *C2             C2CL            C2CL2           C2CL3           C2CL4          
 C2CL6           C2F             C2FCL           C2FCL3          C2F2           
 C2F2CL2         C2F3            C2F3CL          C2F4            C2F6           
 C2H             C2HCL           C2HCL3          C2HF            C2HFCL2        
 C2HF2CL         C2HF3           C2H2,vinylidene C2H2CL2         C2H2FCL        
 C2H2F2          O(CH)2O         HO(CO)2OH       CH2Br-COOH      CH2CL-COOH     
 C2H3F           OHCH2COOH       CH3N2CH3        CH3O2CH3        CCN            
 CNC             OCCN            C2N2            C2O             C2S2           
 *C3             C3H3,1-propynl  C3H3,2-propynl  C3H4,cyclo-     C3H6O,propylox 
 CNCOCN          C3OS            C3O2            C3S2            *C4            
 C4H2,butadiyne  C4H4,1,3-cyclo- C4H6,butadiene  C4H6,1butyne    C4H6,2butyne   
 C4H6,cyclo-     C4H8,cyclo-     (CH3COOH)2      C4H9,n-butyl    C4H9,i-butyl   
 C4H9,s-butyl    C4H9,t-butyl    C4N2            *C5             C5H6,1,3cyclo- 
 C5H8,cyclo-     C5H10,1-pentene C5H10,cyclo-    C5H11,pentyl    C5H11,t-pentyl 
 C5H12,n-pentane C5H12,i-pentane CH3C(CH3)2CH3   C6H2            C6H5,phenyl    
 C6H5O,phenoxy   C6H6            C6H5OH,phenol   C6H10,cyclo-    C6H12,1-hexene 
 C6H12,cyclo-    C6H13,n-hexyl   C6H14,n-hexane  C7H7,benzyl     C7H8           
 C7H8O,cresol-mx C7H14,1-heptene C7H15,n-heptyl  C7H16,n-heptane C7H16,2-methylh
 C8H8,styrene    C8H10,ethylbenz C8H16,1-octene  C8H17,n-octyl   C8H18,n-octane 
 C8H18,isooctane C9H19,n-nonyl   C10H8,naphthale C10H21,n-decyl  C12H9,o-bipheny
 C12H10,biphenyl CLCN            CLF             CLF3            CLF5           
 CLO             CLO2            CL2             CL2O            *F             
 FCN             FCO             FO              FO2,FOO         FO2,OFO        
 F2              F2O             F2O2            FS2F            HCCN           
 HCCO            HNO2            HNO3            HOF             HO2            
 HSO3F           H2SO4           H3F3            (HCOOH)2        H4F4           
 H5F5            H6F6            H7F7            *N              NCO            
 NF              NF2             NF3             NHF             NHF2           
 NH2F            NOCL            NOF             NOF3            NO2            
 NO2CL           NO2F            NO3             NO3F            NCN            
 N2F2            N2F4            NH2NO2          N2O             N2O3           
 N2O4            N2O5            N3              N3H             *O2            
 O3              PCL2            PCL3            PCL5            PFCL           
 PFCL2           PFCL4           PF2             PF2CL           PF2CL3         
 PF3             PF3CL2          PF4CL           PF5             POCL3          
 POFCL2          POF2CL          POF3            P2O4            P2O5           
 P3O6            P4O6            P4O7            P4O8            P4O9           
 P4O10           SCL2            SF              SF2             SF3            
 SF4             SF5             SF6             SOF2            SO2CL2         
 SO2FCL          SO2F2           SO3             S2CL2           S2F2           
 S4              S5              S6              S7              S8             
 Br2(cr)         Br2(L)          C(gr)           H2O(cr)         H2O(L)         
 H2SO4(L)        H3PO4(cr)       H3PO4(L)        NH4CL(II)       NH4CL(III)     
 NH4F(cr)        NH4F(L)         P(cr)           P(L)            P4O10(cr)      
 P4O10(L)        S(a)            S(b)            S(L)            SCL2(L)        
 S2CL2(L)       



