
 *******************************************************************************

         NASA-GLENN CHEMICAL EQUILIBRIUM PROGRAM CEA2, MAY 21, 2004
                   BY  BONNIE MCBRIDE AND SANFORD GORDON
      REFS: NASA RP-1311, PART I, 1994 AND NASA RP-1311, PART II, 1996

 *******************************************************************************



 prob
 case=saturn tp
 t,k= 1300,1350,1400,1450,1500,
 p,bar= 2036.69, 2336.48, 2669.30, 3037.79, 3444.73
 react
   name=H2 moles=1.0
   name=He moles=0.135
   name=CH4 moles=5.33e-3
   name=N2 moles = 2.27e-4
   name=H2S moles=3.76e-4
   name=PH3 moles = 4.0e-6
  
 # ten time solar water
   name=O2 moles = 4.9e-3
 # all others are one time solar
   name=HF moles = 7.26e-8
 #  name=Na moles = 3.48e-6
 #  name=Mg moles = 7.96e-5
 #  name=Si moles=6.47e-5
  
   name=HCL moles = 6.32e-7
 #  name=K moles = 2.14e-7
 #  name=Ca moles = 4.38e-6
 #  name=GeH4 moles = 8.93e-9
   name=HBr moles=6.93e-10
  
 output    trace=1e-20
 plot t p HOPO H3PO4(cr) PF3 PH2 PH3 POF3 H3PO4(L) HPO PH PN PO PS P2 P2O3 P4 PO2
  PCL P3
  
 end

 OPTIONS: TP=T  HP=F  SP=F  TV=F  UV=F  SV=F  DETN=F  SHOCK=F  REFL=F  INCD=F
 RKT=F  FROZ=F  EQL=F  IONS=F  SIUNIT=T  DEBUGF=F  SHKDBG=F  DETDBG=F  TRNSPT=F

 T,K =  1300.0000  1350.0000  1400.0000  1450.0000  1500.0000

 TRACE= 1.00E-20  S/R= 0.000000E+00  H/R= 0.000000E+00  U/R= 0.000000E+00

 P,BAR =  2036.690000  2336.480000  2669.300000  3037.790000  3444.730000

    REACTANT           MOLES    (ENERGY/R),K   TEMP,K  DENSITY
        EXPLODED FORMULA
 N: H2               1.000000   0.000000E+00     0.00  0.0000
          H  2.00000
 N: He               0.135000   0.000000E+00     0.00  0.0000
          HE 1.00000
 N: CH4              0.005330   0.000000E+00     0.00  0.0000
          C  1.00000  H  4.00000
 N: N2               0.000227   0.000000E+00     0.00  0.0000
          N  2.00000
 N: H2S              0.000376   0.000000E+00     0.00  0.0000
          H  2.00000  S  1.00000
 N: PH3              0.000004   0.000000E+00     0.00  0.0000
          P  1.00000  H  3.00000
 N: O2               0.004900   0.000000E+00     0.00  0.0000
          O  2.00000
 N: HF               0.000000   0.000000E+00     0.00  0.0000
          H  1.00000  F  1.00000
 N: HCL              0.000001   0.000000E+00     0.00  0.0000
          H  1.00000  CL 1.00000
 N: HBr              0.000000   0.000000E+00     0.00  0.0000
          H  1.00000  BR 1.00000

  SPECIES BEING CONSIDERED IN THIS SYSTEM
 (CONDENSED PHASE MAY HAVE NAME LISTED SEVERAL TIMES)
  LAST thermo.inp UPDATE:    9/09/04

  g 3/97  *Br              tpis89  BrCL             tpis89  BrF            
  tpis89  BrF3             tpis89  BrF5             j 3/96  BrO            
  j 3/96  OBrO             j 3/96  BrOO             j 3/96  BrO3           
  tpis89  Br2              j 3/96  BrBrO            j 3/96  BrOBr          
  g 7/97  *C               tpis91  CBr              tpis91  CBr2           
  tpis91  CBr3             g 8/99  CBr4             g 8/99  CCL            
  tpis91  CCLBr3           g 8/99  CCL2             tpis91  CCL2Br2        
  n12/93  CCL3             tpis91  CCL3Br           tpis91  CCL4           
  tpis91  CF               tpis91  CFBr3            g 9/99  CFCL           
  tpis91  CFCLBr2          tpis91  CFCL2            tpis91  CFCL2Br        
  g 7/99  CFCL3            g 9/99  CF2              tpis91  CF2Br2         
  tpis91  CF2CL            tpis91  CF2CLBr          g 7/99  CF2CL2         
  g 8/99  CF3              tpis91  CF3Br            g 7/99  CF3CL          
  g 7/99  CF4              tpis79  *CH              g 8/99  CHBr3          
  g 9/99  CHCL             tpis91  CHCLBr2          n12/93  CHCL2          
  tpis91  CHCL2Br          g 7/99  CHCL3            g 8/99  CHF            
  tpis91  CHFBr2           tpis91  CHFCL            tpis91  CHFCLBr        
  g 7/99  CHFCL2           n 6/88  CHF2             tpis91  CHF2Br         
  g 7/99  CHF2CL           g 8/99  CHF3             g 4/02  CH2            
  g 8/99  CH2Br2           g12/99  CH2CL            tpis91  CH2CLBr        
  tpis91  CH2CL2           n 6/88  CH2F             tpis91  CH2FBr         
  g 7/99  CH2FCL           g 8/99  CH2F2            g 4/02  CH3            
  g 8/99  CH3Br            tpis91  CH3CL            g 8/99  CH3F           
  g11/00  CH2OH            g 7/00  CH3O             g 8/99  CH4            
  g 7/00  CH3OH            srd 01  CH3OOH           g 8/99  *CN            
  g12/99  CNN              tpis79  *CO              tpis91  COCL           
  tpis91  COCL2            tpis91  COFCL            tpis91  COF2           
  tpis91  COHCL            tpis91  COHF             g 5/01  COS            
  g 9/99  *CO2             tpis91  COOH             tpis91  CP             
  g11/01  CS               g 6/95  CS2              tpis91  *C2            
  tpis91  C2CL             g 5/02  C2CL2            tpis91  C2CL3          
  g 5/02  C2CL4            g 5/02  C2CL6            tpis91  C2F            
  tpis91  C2FCL            tpis91  C2FCL3           tpis91  C2F2           
  tpis91  C2F2CL2          tpis91  C2F3             tpis91  C2F3CL         
  tpis91  C2F4             g12/99  C2F6             g 6/01  C2H            
  g 5/02  C2HCL            g 5/02  C2HCL3           tpis91  C2HF           
  tpis91  C2HFCL2          tpis91  C2HF2CL          tpis91  C2HF3          
  g 1/91  C2H2,acetylene   g 5/01  C2H2,vinylidene  tpis91  C2H2CL2        
  tpis91  C2H2FCL          tpis91  C2H2F2           g 4/02  CH2CO,ketene   
  g 3/02  O(CH)2O          srd 01  HO(CO)2OH        g 7/01  C2H3,vinyl     
  srd 01  CH2Br-COOH       g 5/02  C2H3CL           srd 01  CH2CL-COOH     
  tpis91  C2H3F            g 9/00  CH3CN            g 6/96  CH3CO,acetyl   
  g 1/00  C2H4             g 8/88  C2H4O,ethylen-o  g 8/88  CH3CHO,ethanal 
  g 6/00  CH3COOH          srd 01  OHCH2COOH        g 7/00  C2H5           
  n 6/79  C2H5Br           g 7/00  C2H6             g 8/88  CH3N2CH3       
  g 8/88  C2H5OH           g 7/00  CH3OCH3          srd 01  CH3O2CH3       
  g 7/00  CCN              tpis91  CNC              srd 01  OCCN           
  tpis79  C2N2             g 8/00  C2O              n 6/01  C2S2           
  tpis79  *C3              n 4/98  C3H3,1-propynl   n 4/98  C3H3,2-propynl 
  g 2/00  C3H4,allene      g 1/00  C3H4,propyne     g 5/90  C3H4,cyclo-    
  g 3/01  C3H5,allyl       g 2/00  C3H6,propylene   g 1/00  C3H6,cyclo-    
  g 6/01  C3H6O,propylox   g 6/97  C3H6O,acetone    g 1/02  C3H6O,propanal 
  g 7/01  C3H7,n-propyl    g 9/85  C3H7,i-propyl    g 2/00  C3H8           
  g 2/00  C3H8O,1propanol  g 2/00  C3H8O,2propanol  srd 01  CNCOCN         
  n 6/01  C3OS             g 7/88  C3O2             n 6/01  C3S2           
  g tpis  *C4              g 7/01  C4H2,butadiyne   g 8/00  C4H4,1,3-cyclo-
  n10/92  C4H6,butadiene   n10/93  C4H6,1butyne     n10/93  C4H6,2butyne   
  g 8/00  C4H6,cyclo-      n 4/88  C4H8,1-butene    n 4/88  C4H8,cis2-buten
  n 4/88  C4H8,tr2-butene  n 4/88  C4H8,isobutene   g 8/00  C4H8,cyclo-    
  g10/00  (CH3COOH)2       n10/84  C4H9,n-butyl     n10/84  C4H9,i-butyl   
  g 1/93  C4H9,s-butyl     g 1/93  C4H9,t-butyl     g12/00  C4H10,n-butane 
  g 8/00  C4H10,isobutane  g 6/01  C4N2             g 8/00  *C5            
  g 5/90  C5H6,1,3cyclo-   g 1/93  C5H8,cyclo-      n 4/87  C5H10,1-pentene
  g 2/01  C5H10,cyclo-     n10/84  C5H11,pentyl     g 1/93  C5H11,t-pentyl 
  n10/85  C5H12,n-pentane  n10/85  C5H12,i-pentane  n10/85  CH3C(CH3)2CH3  
  g 2/93  C6H2             g11/00  C6H5,phenyl      g 8/00  C6H5O,phenoxy  
  g 8/00  C6H6             g 8/00  C6H5OH,phenol    g 1/93  C6H10,cyclo-   
  n 4/87  C6H12,1-hexene   g 6/90  C6H12,cyclo-     n10/83  C6H13,n-hexyl  
  g 6/01  C6H14,n-hexane   g 7/01  C7H7,benzyl      g 1/93  C7H8           
  g12/00  C7H8O,cresol-mx  n 4/87  C7H14,1-heptene  n10/83  C7H15,n-heptyl 
  n10/85  C7H16,n-heptane  n10/85  C7H16,2-methylh  n 4/89  C8H8,styrene   
  n10/86  C8H10,ethylbenz  n 4/87  C8H16,1-octene   n10/83  C8H17,n-octyl  
  n 4/85  C8H18,n-octane   n 4/85  C8H18,isooctane  n10/83  C9H19,n-nonyl  
  g 3/01  C10H8,naphthale  n10/83  C10H21,n-decyl   g 8/00  C12H9,o-bipheny
  g 8/00  C12H10,biphenyl  g 7/97  *CL              g 6/95  CLCN           
  tpis89  CLF              tpis89  CLF3             tpis89  CLF5           
  tpis89  CLO              g 7/93  CLO2             tpis89  CL2            
  tpis89  CL2O             g 5/97  *F               g 5/99  FCN            
  g12/99  FCO              j 9/95  FO               j 9/95  FO2,FOO        
  j 9/95  FO2,OFO          tpis89  F2               g 4/99  F2O            
  j 9/95  F2O2             j 6/76  FS2F             g 6/97  *H             
  tpis89  HBr              g 6/01  HCN              g 1/01  HCO            
  tpis89  HCCN             g 6/01  HCCO             tpis89  HCL            
  tpis89  *HF              g 6/01  HNC              g 7/00  HNCO           
  g10/01  HNO              tpis89  HNO2             g 5/99  HNO3           
  g 1/01  HOCL             tpis89  HOF              g 4/02  HO2            
  tpis89  HOPO             tpis89  HPO              j 6/72  HSO3F          
  tpis78  *H2              g 5/01  HCHO,formaldehy  g 6/01  HCOOH          
  tpis89  H2F2             g 8/89  H2O              g 6/99  H2O2           
  g 4/01  H2S              tpis89  H2SO4            tpis89  H3F3           
  g 6/01  (HCOOH)2         tpis89  H4F4             tpis89  H5F5           
  tpis89  H6F6             tpis89  H7F7             g 5/97  *He            
  g 5/97  *N               g 6/01  NCO              tpis89  NF             
  g 4/99  NF2              g 4/99  NF3              g 4/99  *NH            
  tpis89  NHF              tpis89  NHF2             g 3/01  NH2            
  tpis89  NH2F             tpis89  NH3              tpis89  NH2OH          
  tpis89  *NO              g 4/99  NOCL             g 4/99  NOF            
  tpis89  NOF3             g 4/99  NO2              g 4/99  NO2CL          
  g 4/99  NO2F             j12/64  NO3              tpis89  NO3F           
  tpis78  *N2              g 6/01  NCN              tpis89  N2F2           
  tpis89  N2F4             g 5/99  N2H2             tpis89  NH2NO2         
  g 4/99  N2H4             g 4/99  N2O              g 4/99  N2O3           
  tpis89  N2O4             g 4/99  N2O5             tpis89  N3             
  g 4/99  N3H              g 5/97  *O               g 4/02  *OH            
  tpis89  *O2              g 8/01  O3               g 5/97  *P             
  tpis89  PCL              tpis89  PCL2             tpis89  PCL3           
  tpis89  PCL5             tpis89  PF               tpis89  PFCL           
  tpis89  PFCL2            tpis89  PFCL4            tpis89  PF2            
  tpis89  PF2CL            tpis89  PF2CL3           tpis89  PF3            
  tpis89  PF3CL2           tpis89  PF4CL            tpis89  PF5            
  tpis89  PH               tpis89  PH2              j 6/62  PH3            
  tpis89  PN               tpis89  PO               tpis89  POCL3          
  tpis89  POFCL2           tpis89  POF2CL           tpis89  POF3           
  tpis89  PO2              tpis89  PS               tpis89  P2             
  tpis89  P2O3             tpis89  P2O4             tpis89  P2O5           
  tpis89  P3               tpis89  P3O6             tpis89  P4             
  tpis89  P4O6             tpis89  P4O7             tpis89  P4O8           
  tpis89  P4O9             tpis89  P4O10            g 5/97  *S             
  j 6/78  SCL              j 6/78  SCL2             tpis89  SF             
  tpis89  SF2              tpis89  SF3              tpis89  SF4            
  tpis89  SF5              tpis89  SF6              g10/01  SH             
  tpis89  SN               tpis89  SO               tpis89  SOF2           
  tpis89  SO2              j 6/71  SO2CL2           j 6/71  SO2FCL         
  tpis89  SO2F2            tpis89  SO3              tpis89  S2             
  g12/00  S2CL2            j 6/76  S2F2             tpis89  S2O            
  tpis89  S3               tpis89  S4               tpis89  S5             
  tpis89  S6               tpis89  S7               tpis89  S8             
  g 8/01  Br2(cr)          g 8/01  Br2(L)           g 8/01  Br2(L)         
  n 4/83  C(gr)            n 4/83  C(gr)            n 4/83  C(gr)          
  g11/99  H2O(cr)          g 8/01  H2O(L)           g 8/01  H2O(L)         
  j 9/77  H2SO4(L)         j12/71  H3PO4(cr)        j12/71  H3PO4(L)       
  j 9/65  NH4CL(II)        j 9/65  NH4CL(III)       j 9/65  NH4CL(III)     
  tpis89  NH4F(cr)         tpis89  NH4F(cr)         tpis89  NH4F(L)        
  tpis89  P(cr)            tpis89  P(L)             tpis89  P4O10(cr)      
  tpis89  P4O10(cr)        tpis89  P4O10(L)         tpis89  S(a)           
  tpis89  S(b)             tpis89  S(L)             tpis89  S(L)           
  tpis89  S(L)             tpis89  S(L)             tpis89  S(L)           
  j 6/78  SCL2(L)          j 6/78  S2CL2(L)       

 O/F =   0.000000

                       EFFECTIVE FUEL     EFFECTIVE OXIDANT        MIXTURE
 ENTHALPY                  h(2)/R              h(1)/R               h0/R
 (KG-MOL)(K)/KG        0.00000000E+00      0.00000000E+00      0.00000000E+00

 KG-FORM.WT./KG             bi(2)               bi(1)               b0i
  *H                   0.71759442E+00      0.00000000E+00      0.71759442E+00
  *He                  0.47908600E-01      0.00000000E+00      0.47908600E-01
  *C                   0.18915025E-02      0.00000000E+00      0.18915025E-02
  *N                   0.16111485E-03      0.00000000E+00      0.16111485E-03
  *S                   0.13343432E-03      0.00000000E+00      0.13343432E-03
  *P                   0.14195141E-05      0.00000000E+00      0.14195141E-05
  *O                   0.34778095E-02      0.00000000E+00      0.34778095E-02
  *F                   0.25764180E-07      0.00000000E+00      0.25764180E-07
  *CL                  0.22428322E-06      0.00000000E+00      0.22428322E-06
  *Br                  0.24593081E-09      0.00000000E+00      0.24593081E-09

 POINT ITN      T            H           HE          C           N 
                    S           P           O           F           CL
                    BR
   1   33    1300.000      -5.359     -11.442      -9.798     -15.245
                 -19.572     -17.701     -34.541     -52.253     -34.953
                 -38.024
   2    2    1350.000      -5.411     -11.515      -9.553     -15.116
                 -19.547     -17.765     -33.745     -51.369     -34.692
                 -37.957
   3    3    1400.000      -5.462     -11.587      -9.330     -15.002
                 -19.526     -17.828     -33.007     -50.550     -34.453
                 -37.898
   4    3    1450.000      -5.513     -11.656      -9.126     -14.903
                 -19.509     -17.892     -32.323     -49.791     -34.233
                 -37.846
   5    3    1500.000      -5.562     -11.724      -8.940     -14.816
                 -19.496     -17.955     -31.687     -49.084     -34.030
                 -37.799

 SINGULAR MATRIX, ITERATION  1  VARIABLE 10(EQLBRM)
   6   24    1300.000      -5.290     -11.305      -9.935     -15.309
                 -19.572     -17.770     -34.541     -52.183     -34.884
                 -37.866
   7    2    1350.000      -5.342     -11.378      -9.691     -15.179
                 -19.547     -17.833     -33.745     -51.300     -34.624
                 -37.889
   8    2    1400.000      -5.394     -11.449      -9.468     -15.062
                 -19.526     -17.896     -33.007     -50.481     -34.385
                 -37.829




               THERMODYNAMIC EQUILIBRIUM PROPERTIES AT ASSIGNED

                           TEMPERATURE AND PRESSURE

 CASE = saturn         

             REACTANT                       MOLES         ENERGY      TEMP
                                                         KJ/KG-MOL      K
 NAME        H2                           1.0000000         0.000      0.000
 NAME        He                           0.1350000         0.000      0.000
 NAME        CH4                          0.0053300         0.000      0.000
 NAME        N2                           0.0002270         0.000      0.000
 NAME        H2S                          0.0003760         0.000      0.000
 NAME        PH3                          0.0000040         0.000      0.000
 NAME        O2                           0.0049000         0.000      0.000
 NAME        HF                           0.0000001         0.000      0.000
 NAME        HCL                          0.0000006         0.000      0.000
 NAME        HBr                          0.0000000         0.000      0.000

 O/F=    0.00000  %FUEL=  0.000000  R,EQ.RATIO=*********  PHI,EQ.RATIO= 0.000000

 THERMODYNAMIC PROPERTIES

 P, BAR           2036.69  2036.69  2036.69  2036.69  2036.69  2336.48  2336.48  2336.48
 T, K             1300.00  1350.00  1400.00  1450.00  1500.00  1300.00  1350.00  1400.00
 RHO, KG/CU M    4.6556 1 4.4831 1 4.3230 1 4.1739 1 4.0347 1 5.3409 1 5.1430 1 4.9593 1
 H, KJ/KG         10778.0  11398.4  12023.0  12651.8  13284.8  10778.0  11398.4  12022.9
 U, KJ/KG         6403.29  6855.40  7311.71  7772.21  8236.88  6403.25  6855.35  7311.63
 G, KJ/KG        -49041.9 -51354.4 -53690.0 -56048.0 -58427.7 -48441.1 -50730.5 -53043.0
 S, KJ/(KG)(K)    46.0153  46.4836  46.9379  47.3791  47.8083  45.5532  46.0214  46.4757

 M, (1/n)           2.471    2.471    2.471    2.471    2.471    2.471    2.471    2.471
 (dLV/dLP)t      -1.00001 -1.00002 -1.00003 -1.00004 -1.00006 -1.00001 -1.00002 -1.00002
 (dLV/dLT)p        1.0001   1.0001   1.0002   1.0002   1.0003   1.0001   1.0001   1.0001
 Cp, KJ/(KG)(K)   12.3658  12.4499  12.5339  12.6178  12.7013  12.3655  12.4493  12.5332
 GAMMAs            1.3739   1.3705   1.3671   1.3639   1.3607   1.3739   1.3705   1.3671
 SON VEL,M/SEC     2451.7   2495.2   2537.9   2579.8   2620.8   2451.7   2495.2   2537.9

 MOLE FRACTIONS

 *Br             3.909-15 6.615-15 1.079-14 1.703-14 2.611-14 3.993-15 6.177-15 1.008-14
 *CH             5.782-24 6.054-23 5.355-22 4.073-21 2.703-20 4.706-24 4.927-23 4.359-22
 CH2             4.697-17 2.388-16 1.080-15 4.395-15 1.627-14 4.094-17 2.081-16 9.412-16
 CH2CL           2.610-18 7.230-18 1.861-17 4.487-17 1.019-16 2.437-18 6.750-18 1.738-17
 CH2F            2.880-20 8.840-20 2.504-19 6.600-19 1.630-18 2.692-20 8.254-20 2.338-19
 CH3             2.4597-9 5.3490-9 1.0995-8 2.1486-8 4.0112-8 2.2965-9 4.9942-9 1.0266-8
 CH3Br           2.728-15 3.577-15 4.600-15 5.813-15 7.228-15 2.984-15 3.577-15 4.600-15
 CH3CL           7.690-13 1.048-12 1.398-12 1.827-12 2.345-12 7.690-13 1.048-12 1.398-12
 CH3F            8.057-15 1.191-14 1.711-14 2.398-14 3.286-14 8.063-15 1.191-14 1.711-14
 CH2OH           1.352-14 3.932-14 1.059-13 2.664-13 6.295-13 1.263-14 3.671-14 9.889-14
 CH3O            3.839-16 1.262-15 3.817-15 1.070-14 2.801-14 3.584-16 1.179-15 3.564-15
 CH4             4.6731-3 4.6729-3 4.6723-3 4.6714-3 4.6697-3 4.6732-3 4.6730-3 4.6726-3
 CH3OH           1.0044-9 1.5201-9 2.2336-9 3.1958-9 4.4636-9 1.0044-9 1.5202-9 2.2338-9
 *CN             7.766-21 5.676-20 3.585-19 1.985-18 9.753-18 5.533-21 4.052-20 2.565-19
 *CO             2.0480-7 4.4410-7 9.1076-7 1.7762-6 3.3102-6 1.5562-7 3.3747-7 6.9210-7
 COCL            3.559-22 1.485-21 5.598-21 1.925-20 6.092-20 2.897-22 1.209-21 4.557-21
 COHCL           1.274-18 3.162-18 7.361-18 1.617-17 3.369-17 1.110-18 2.757-18 6.417-18
 COHF            1.930-18 4.312-18 9.101-18 1.825-17 3.494-17 1.684-18 3.759-18 7.934-18
 COS             3.325-12 7.172-12 1.465-11 2.848-11 5.297-11 2.526-12 5.450-12 1.113-11
 *CO2            1.150 -9 2.237 -9 4.153 -9 7.392 -9 1.266 -8 8.738-10 1.700 -9 3.156 -9
 COOH            6.727-17 2.407-16 7.870-16 2.372-15 6.646-15 5.475-17 1.959-16 6.406-16
 CS              8.472-16 3.251-15 1.132-14 3.614-14 1.066-13 6.438-16 2.470-15 8.604-15
 CS2             1.220-15 2.978-15 6.823-15 1.476-14 3.030-14 9.267-16 2.263-15 5.185-15
 C2H2,acetylene  7.412-14 2.960-13 1.070-12 3.537-12 1.078-11 5.632-14 2.250-13 8.133-13
 C2H2,vinylidene 1.950-20 1.455-19 9.387-19 5.317-18 2.677-17 1.482-20 1.105-19 7.134-19
 CH2CO,ketene    1.221-14 4.391-14 1.441-13 4.354-13 1.221-12 9.277-15 3.336-14 1.095-13
 O(CH)2O         1.988-21 9.760-21 4.283-20 1.699-19 6.147-19 1.510-21 7.417-21 3.255-20
 C2H3,vinyl      2.997-17 1.487-16 6.574-16 2.619-15 9.502-15 2.439-17 1.210-16 5.351-16
 C2H3CL          4.919-19 1.317-18 3.285-18 7.692-18 1.700-17 4.288-19 1.148-18 2.864-18
 C2H3F           1.014-20 2.887-20 7.629-20 1.885-19 4.381-19 8.847-21 2.517-20 6.651-20
 CH3CN           1.764-13 4.755-13 1.190-12 2.785-12 6.126-12 1.346-13 3.636-13 9.124-13
 CH3CO,acetyl    2.747-17 1.122-16 4.143-16 1.398-15 4.351-15 2.236-17 9.128-17 3.372-16
 C2H4            3.798-10 7.985-10 1.591 -9 3.020 -9 5.485 -9 3.311-10 6.961-10 1.387 -9
 C2H4O,ethylen-o 3.165-19 1.094-18 3.466-18 1.014-17 2.761-17 2.759-19 9.540-19 3.021-18
 CH3CHO,ethanal  1.719-13 4.020-13 8.846-13 1.843-12 3.656-12 1.499-13 3.504-13 7.712-13
 CH3COOH         3.785-16 8.536-16 1.821-15 3.692-15 7.150-15 3.299-16 7.441-16 1.587-15
 OHCH2COOH       3.296-22 1.083-21 3.283-21 9.244-21 2.435-20 2.874-22 9.445-22 2.862-21
 C2H5            2.520-13 6.578-13 1.602-12 3.666-12 7.931-12 2.353-13 6.142-13 1.496-12
 C2H5Br          1.074-19 1.737-19 2.714-19 4.113-19 6.061-19 1.175-19 1.737-19 2.715-19
 C2H6            3.4212-8 4.4055-8 5.5699-8 6.9256-8 8.4812-8 3.4213-8 4.4058-8 5.5705-8
 C2H5OH          8.366-14 1.522-13 2.655-13 4.457-13 7.230-13 8.366-14 1.522-13 2.655-13
 CH3OCH3         1.316-16 2.832-16 5.773-16 1.121-15 2.082-15 1.316-16 2.832-16 5.774-16
 C2N2            3.925-23 3.076-22 2.069-21 1.211-20 6.243-20 2.286-23 1.799-22 1.216-21
 C3H3,2-propynl  7.354-21 5.652-20 3.751-19 2.181-18 1.126-17 5.217-21 4.010-20 2.661-19
 C3H4,allene     5.865-18 2.731-17 1.139-16 4.297-16 1.482-15 4.456-18 2.075-17 8.653-17
 C3H4,propyne    1.811-17 8.243-17 3.364-16 1.244-15 4.211-15 1.376-17 6.264-17 2.556-16
 C3H4,cyclo-     1.613-21 1.006-20 5.496-20 2.669-19 1.165-18 1.226-21 7.642-21 4.177-20
 C3H5,allyl      5.297-18 2.242-17 8.558-17 2.977-16 9.522-16 4.311-18 1.825-17 6.966-17
 C3H6,propylene  4.903-14 1.234-13 2.906-13 6.445-13 1.354-12 4.274-14 1.076-13 2.533-13
 C3H6,cyclo-     5.638-17 1.594-16 4.187-16 1.028-15 2.377-15 4.915-17 1.390-16 3.650-16
 C3H6O,acetone   1.605-17 4.197-17 1.025-16 2.353-16 5.107-16 1.399-17 3.659-17 8.935-17
 C3H6O,propanal  3.168-18 9.394-18 2.579-17 6.606-17 1.589-16 2.762-18 8.189-18 2.249-17
 C3H7,n-propyl   5.359-18 1.767-17 5.349-17 1.499-16 3.919-16 5.003-18 1.650-17 4.995-17
 C3H7,i-propyl   6.453-18 2.044-17 5.961-17 1.613-16 4.079-16 6.025-18 1.909-17 5.566-17
 C3H8            7.923-13 1.278-12 1.992-12 3.012-12 4.426-12 7.924-13 1.278-12 1.993-12
 C3H8O,1propanol 1.821-18 4.123-18 8.815-18 1.789-17 3.463-17 1.821-18 4.124-18 8.817-18
 C3H8O,2propanol 2.567-18 5.555-18 1.139-17 2.225-17 4.158-17 2.567-18 5.556-18 1.140-17
 C4H6,butadiene  2.316-20 1.115-19 4.799-19 1.867-18 6.631-18 1.760-20 8.473-20 3.648-19
 C4H6,1butyne    4.474-22 2.556-21 1.289-20 5.808-20 2.364-19 3.400-22 1.943-21 9.797-21
 C4H6,2butyne    7.565-22 3.985-21 1.863-20 7.820-20 2.978-19 5.748-22 3.028-21 1.416-20
 C4H8,1-butene   1.063-18 3.347-18 9.709-18 2.615-17 6.588-17 9.267-19 2.918-18 8.465-18
 C4H8,cis2-buten 6.021-19 1.827-18 5.122-18 1.336-17 3.265-17 5.248-19 1.593-18 4.466-18
 C4H8,tr2-butene 6.799-19 2.060-18 5.768-18 1.503-17 3.671-17 5.927-19 1.796-18 5.029-18
 C4H8,isobutene  8.876-19 2.639-18 7.260-18 1.861-17 4.477-17 7.737-19 2.301-18 6.330-18
 C4H8,cyclo-     2.203-22 7.603-22 2.403-21 7.014-21 1.905-20 1.921-22 6.628-22 2.095-21
 C4H9,n-butyl    3.877-22 1.536-21 5.518-21 1.814-20 5.506-20 3.620-22 1.434-21 5.153-21
 C4H9,i-butyl    2.770-22 1.066-21 3.725-21 1.194-20 3.540-20 2.586-22 9.951-22 3.479-21
 C4H9,s-butyl    2.657-22 1.050-21 3.757-21 1.231-20 3.722-20 2.481-22 9.800-22 3.508-21
 C4H9,t-butyl    1.322-22 4.780-22 1.576-21 4.781-21 1.345-20 1.235-22 4.464-22 1.472-21
 C4H10,n-butane  1.836-17 3.720-17 7.173-17 1.322-16 2.339-16 1.836-17 3.720-17 7.174-17
 C4H10,isobutane 7.679-18 1.511-17 2.837-17 5.099-17 8.812-17 7.679-18 1.512-17 2.837-17
 C5H12,n-pentane 3.621-22 9.219-22 2.199-21 4.944-21 1.053-20 3.622-22 9.220-22 2.200-21
 C5H12,i-pentane 3.723-22 9.357-22 2.208-21 4.923-21 1.042-20 3.723-22 9.359-22 2.209-21
 *CL             1.230-14 2.616-14 5.277-14 1.015-13 1.869-13 1.148-14 2.443-14 4.927-14
 CLCN            2.729-21 9.857-21 3.239-20 9.767-20 2.725-19 2.083-21 7.537-21 2.482-20
 CL2             1.997-21 3.828-21 7.006-21 1.230-20 2.082-20 1.997-21 3.828-21 7.006-21
 *F              8.130-21 2.787-20 8.758-20 2.545-19 6.892-19 7.597-21 2.602-20 8.177-20
 *H              2.2854-8 4.9236-8 1.0050-7 1.9541-7 3.6374-7 2.1337-8 4.5969-8 9.3827-8
 HBr             6.076-10 6.076-10 6.076-10 6.076-10 6.076-10 6.647-10 6.076-10 6.076-10
 HCN             1.691-10 4.331-10 1.034 -9 2.315 -9 4.890 -9 1.290-10 3.312-10 7.926-10
 HCO             3.755-14 1.363-13 4.510-13 1.373-12 3.881-12 3.056-14 1.109-13 3.671-13
 HCCO            6.577-22 5.210-21 3.559-20 2.128-19 1.128-18 4.666-22 3.697-21 2.525-20
 HCL             5.5415-7 5.5414-7 5.5414-7 5.5414-7 5.5413-7 5.5415-7 5.5414-7 5.5414-7
 *HF             6.3657-8 6.3656-8 6.3656-8 6.3656-8 6.3655-8 6.3707-8 6.3657-8 6.3656-8
 HNC             1.126-12 3.576-12 1.042-11 2.809-11 7.053-11 8.593-13 2.734-12 7.987-12
 HNCO            5.096-13 1.293-12 3.063-12 6.810-12 1.429-11 3.889-13 9.889-13 2.348-12
 HNO             3.998-19 1.583-18 5.671-18 1.855-17 5.589-17 3.500-19 1.389-18 4.986-18
 HOCL            1.380-19 3.415-19 7.930-19 1.738-18 3.616-18 1.380-19 3.416-19 7.930-19
 HO2             2.082-23 1.183-22 5.946-22 2.676-21 1.090-20 1.944-23 1.105-22 5.552-22
 HOPO            6.9228-9 7.6972-9 8.4955-9 9.3110-9 1.0136-8 6.0375-9 6.7140-9 7.4119-9
 HPO             6.656-13 1.277-12 2.336-12 4.096-12 6.909-12 5.805-13 1.114-12 2.038-12
 *H2             8.6764-1 8.6764-1 8.6764-1 8.6765-1 8.6765-1 8.6763-1 8.6764-1 8.6764-1
 HCHO,formaldehy 1.724-10 3.670-10 7.402-10 1.422 -9 2.614 -9 1.503-10 3.199-10 6.452-10
 HCOOH           2.257-12 4.591-12 8.894-12 1.649-11 2.938-11 1.968-12 4.002-12 7.754-12
 H2F2            3.020-15 2.844-15 2.694-15 2.563-15 2.450-15 3.469-15 3.263-15 3.090-15
 H2O             8.5926-3 8.5923-3 8.5918-3 8.5908-3 8.5892-3 8.5926-3 8.5924-3 8.5920-3
 H2O2            4.079-19 1.387-18 4.329-18 1.250-17 3.367-17 4.079-19 1.387-18 4.329-18
 H2S             3.2968-4 3.2967-4 3.2967-4 3.2966-4 3.2965-4 3.2968-4 3.2968-4 3.2967-4
 *He             1.1837-1 1.1837-1 1.1837-1 1.1837-1 1.1837-1 1.1837-1 1.1837-1 1.1837-1
 *N              7.043-21 4.353-20 2.357-19 1.132-18 4.882-18 5.757-21 3.565-20 1.935-19
 NCO             2.363-21 1.435-20 7.639-20 3.612-19 1.534-18 1.684-21 1.024-20 5.467-20
 *NH             8.894-17 3.632-16 1.338-15 4.486-15 1.382-14 7.786-17 3.186-16 1.176-15
 NH2             2.259-11 5.099-11 1.083-10 2.175-10 4.152-10 2.118-11 4.791-11 1.020-10
 NH2F            2.666-21 6.197-21 1.353-20 2.790-20 5.464-20 2.680-21 6.236-21 1.365-20
 NH3             3.9081-4 3.8758-4 3.8338-4 3.7812-4 3.7175-4 3.9251-4 3.9000-4 3.8671-4
 NH2OH           4.582-16 1.070-15 2.350-15 4.877-15 9.616-15 4.602-16 1.077-15 2.370-15
 *NO             3.526-17 1.364-16 4.778-16 1.531-15 4.521-15 2.882-17 1.117-16 3.923-16
 *N2             3.6314-6 5.2484-6 7.3445-6 9.9708-6 1.3155-5 2.7834-6 4.0380-6 5.6782-6
 N2H2            2.225-17 6.508-17 1.754-16 4.391-16 1.027-15 1.957-17 5.744-17 1.556-16
 N2H4            1.769-15 3.424-15 6.291-15 1.101-14 1.844-14 1.784-15 3.467-15 6.401-15
 N2O             2.270-22 1.031-21 4.188-21 1.535-20 5.125-20 1.740-22 7.936-22 3.238-21
 *O              7.456-20 4.182-19 2.076-18 9.237-18 3.723-17 6.500-20 3.646-19 1.810-18
 *OH             3.574-12 9.507-12 2.359-11 5.499-11 1.212-10 3.337-12 8.876-12 2.202-11
 *O2             3.617-22 2.000-21 9.800-21 4.308-20 1.717-19 3.153-22 1.743-21 8.543-21
 *P              3.743-15 1.118-14 3.084-14 7.922-14 1.908-13 3.047-15 9.103-15 2.512-14
 PCL             1.274-18 2.801-18 5.814-18 1.146-17 2.156-17 1.111-18 2.443-18 5.072-18
 PF              1.773-19 3.877-19 8.006-19 1.571-18 2.942-18 1.548-19 3.381-19 6.984-19
 PH              5.897-12 1.295-11 2.684-11 5.283-11 9.922-11 5.143-12 1.129-11 2.342-11
 PH2             1.2013-8 1.7812-8 2.5641-8 3.5939-8 4.9168-8 1.1221-8 1.6640-8 2.3959-8
 PH3             3.4883-6 3.4817-6 3.4730-6 3.4619-6 3.4477-6 3.4900-6 3.4839-6 3.4758-6
 PN              5.009-13 1.085-12 2.213-12 4.275-12 7.859-12 3.825-13 8.298-13 1.697-12
 PO              9.587-13 2.050-12 4.149-12 7.987-12 1.470-11 7.806-13 1.670-12 3.379-12
 PO2             1.807-15 3.794-15 7.556-15 1.434-14 2.606-14 1.471-15 3.090-15 6.154-15
 PS              1.046-12 1.922-12 3.375-12 5.691-12 9.250-12 8.521-13 1.565-12 2.749-12
 P2              1.559-12 2.551-12 4.019-12 6.117-12 9.018-12 1.185-12 1.941-12 3.059-12
 P2O3            2.241-17 2.877-17 3.631-17 4.509-17 5.515-17 1.705-17 2.189-17 2.764-17
 P3              1.118-19 2.339-19 4.625-19 8.687-19 1.557-18 7.945-20 1.663-19 3.289-19
 P4              9.228-20 1.157-19 1.419-19 1.708-19 2.017-19 6.124-20 7.679-20 9.432-20
 *S              4.496-14 1.289-13 3.428-13 8.526-13 1.996-12 3.919-14 1.124-13 2.988-13
 SCL             3.270-20 8.510-20 2.069-19 4.731-19 1.024-18 3.053-20 7.945-20 1.931-19
 SH              3.4229-9 6.0787-9 1.0361-8 1.7022-8 2.7051-8 3.1958-9 5.6754-9 9.6736-9
 SN              4.518-17 1.491-16 4.503-16 1.256-15 3.258-15 3.693-17 1.221-16 3.696-16
 SO              6.276-15 1.640-14 4.005-14 9.201-14 2.000-13 5.471-15 1.430-14 3.492-14
 SO2             6.171-16 1.347-15 2.786-15 5.487-15 1.034-14 5.379-16 1.175-15 2.429-15
 S2              5.317-13 9.890-13 1.760-12 3.010-12 4.967-12 4.635-13 8.621-13 1.534-12
 S2O             5.303-18 1.233-17 2.701-17 5.608-17 1.110-16 4.623-18 1.075-17 2.354-17
 S3              5.948-19 1.284-18 2.623-18 5.103-18 9.494-18 5.185-19 1.119-18 2.287-18

  * THERMODYNAMIC PROPERTIES FITTED TO 20000.K

    PRODUCTS WHICH WERE CONSIDERED BUT WHOSE MOLE FRACTIONS
    WERE LESS THAN 1.000000E-20 FOR ALL ASSIGNED CONDITIONS

 BrCL            BrF             BrF3            BrF5            BrO            
 OBrO            BrOO            BrO3            Br2             BrBrO          
 BrOBr           *C              CBr             CBr2            CBr3           
 CBr4            CCL             CCLBr3          CCL2            CCL2Br2        
 CCL3            CCL3Br          CCL4            CF              CFBr3          
 CFCL            CFCLBr2         CFCL2           CFCL2Br         CFCL3          
 CF2             CF2Br2          CF2CL           CF2CLBr         CF2CL2         
 CF3             CF3Br           CF3CL           CF4             CHBr3          
 CHCL            CHCLBr2         CHCL2           CHCL2Br         CHCL3          
 CHF             CHFBr2          CHFCL           CHFCLBr         CHFCL2         
 CHF2            CHF2Br          CHF2CL          CHF3            CH2Br2         
 CH2CLBr         CH2CL2          CH2FBr          CH2FCL          CH2F2          
 CH3OOH          CNN             COCL2           COFCL           COF2           
 CP              *C2             C2CL            C2CL2           C2CL3          
 C2CL4           C2CL6           C2F             C2FCL           C2FCL3         
 C2F2            C2F2CL2         C2F3            C2F3CL          C2F4           
 C2F6            C2H             C2HCL           C2HCL3          C2HF           
 C2HFCL2         C2HF2CL         C2HF3           C2H2CL2         C2H2FCL        
 C2H2F2          HO(CO)2OH       CH2Br-COOH      CH2CL-COOH      CH3N2CH3       
 CH3O2CH3        CCN             CNC             OCCN            C2O            
 C2S2            *C3             C3H3,1-propynl  C3H6O,propylox  CNCOCN         
 C3OS            C3O2            C3S2            *C4             C4H2,butadiyne 
 C4H4,1,3-cyclo- C4H6,cyclo-     (CH3COOH)2      C4N2            *C5            
 C5H6,1,3cyclo-  C5H8,cyclo-     C5H10,1-pentene C5H10,cyclo-    C5H11,pentyl   
 C5H11,t-pentyl  CH3C(CH3)2CH3   C6H2            C6H5,phenyl     C6H5O,phenoxy  
 C6H6            C6H5OH,phenol   C6H10,cyclo-    C6H12,1-hexene  C6H12,cyclo-   
 C6H13,n-hexyl   C6H14,n-hexane  C7H7,benzyl     C7H8            C7H8O,cresol-mx
 C7H14,1-heptene C7H15,n-heptyl  C7H16,n-heptane C7H16,2-methylh C8H8,styrene   
 C8H10,ethylbenz C8H16,1-octene  C8H17,n-octyl   C8H18,n-octane  C8H18,isooctane
 C9H19,n-nonyl   C10H8,naphthale C10H21,n-decyl  C12H9,o-bipheny C12H10,biphenyl
 CLF             CLF3            CLF5            CLO             CLO2           
 CL2O            FCN             FCO             FO              FO2,FOO        
 FO2,OFO         F2              F2O             F2O2            FS2F           
 HCCN            HNO2            HNO3            HOF             HSO3F          
 H2SO4           H3F3            (HCOOH)2        H4F4            H5F5           
 H6F6            H7F7            NF              NF2             NF3            
 NHF             NHF2            NOCL            NOF             NOF3           
 NO2             NO2CL           NO2F            NO3             NO3F           
 NCN             N2F2            N2F4            NH2NO2          N2O3           
 N2O4            N2O5            N3              N3H             O3             
 PCL2            PCL3            PCL5            PFCL            PFCL2          
 PFCL4           PF2             PF2CL           PF2CL3          PF3            
 PF3CL2          PF4CL           PF5             POCL3           POFCL2         
 POF2CL          POF3            P2O4            P2O5            P3O6           
 P4O6            P4O7            P4O8            P4O9            P4O10          
 SCL2            SF              SF2             SF3             SF4            
 SF5             SF6             SOF2            SO2CL2          SO2FCL         
 SO2F2           SO3             S2CL2           S2F2            S4             
 S5              S6              S7              S8              Br2(cr)        
 Br2(L)          C(gr)           H2O(cr)         H2O(L)          H2SO4(L)       
 H3PO4(cr)       H3PO4(L)        NH4CL(II)       NH4CL(III)      NH4F(cr)       
 NH4F(L)         P(cr)           P(L)            P4O10(cr)       P4O10(L)       
 S(a)            S(b)            S(L)            SCL2(L)         S2CL2(L)       






 POINT ITN      T            H           HE          C           N 
                    S           P           O           F           CL
                    BR
   1    3    1450.000      -5.444     -11.519      -9.264     -14.960
                 -19.509     -17.959     -32.323     -49.722     -34.165
                 -37.777
   2    3    1500.000      -5.493     -11.586      -9.077     -14.869
                 -19.496     -18.023     -31.687     -49.015     -33.962
                 -37.730

 SINGULAR MATRIX, ITERATION  1  VARIABLE 10(EQLBRM)
   3   24    1300.000      -5.223     -11.172     -10.068     -15.373
                 -19.572     -17.836     -34.541     -52.117     -34.818
                 -37.806
   4    2    1350.000      -5.276     -11.245      -9.824     -15.241
                 -19.547     -17.899     -33.745     -51.233     -34.557
                 -37.822
   5    2    1400.000      -5.327     -11.316      -9.601     -15.122
                 -19.526     -17.962     -33.007     -50.415     -34.318
                 -37.763
   6    3    1450.000      -5.377     -11.385      -9.397     -15.017
                 -19.509     -18.025     -32.323     -49.655     -34.098
                 -37.710
   7    3    1500.000      -5.426     -11.453      -9.210     -14.924
                 -19.496     -18.088     -31.686     -48.949     -33.895
                 -37.664

 SINGULAR MATRIX, ITERATION  1  VARIABLE 10(EQLBRM)
   8   24    1300.000      -5.159     -11.042     -10.197     -15.435
                 -19.572     -17.900     -34.541     -52.052     -34.753
                 -37.750




               THERMODYNAMIC EQUILIBRIUM PROPERTIES AT ASSIGNED

                           TEMPERATURE AND PRESSURE

 CASE = saturn         

             REACTANT                       MOLES         ENERGY      TEMP
                                                         KJ/KG-MOL      K
 NAME        H2                           1.0000000         0.000      0.000
 NAME        He                           0.1350000         0.000      0.000
 NAME        CH4                          0.0053300         0.000      0.000
 NAME        N2                           0.0002270         0.000      0.000
 NAME        H2S                          0.0003760         0.000      0.000
 NAME        PH3                          0.0000040         0.000      0.000
 NAME        O2                           0.0049000         0.000      0.000
 NAME        HF                           0.0000001         0.000      0.000
 NAME        HCL                          0.0000006         0.000      0.000
 NAME        HBr                          0.0000000         0.000      0.000

 O/F=    0.00000  %FUEL=  0.000000  R,EQ.RATIO=*********  PHI,EQ.RATIO= 0.000000

 THERMODYNAMIC PROPERTIES

 P, BAR           2336.48  2336.48  2669.30  2669.30  2669.30  2669.30  2669.30  3037.79
 T, K             1450.00  1500.00  1300.00  1350.00  1400.00  1450.00  1500.00  1300.00
 RHO, KG/CU M    4.7883 1 4.6286 1 6.1016 1 5.8756 1 5.6658 1 5.4704 1 5.2880 1 6.9440 1
 H, KJ/KG         12651.7  13284.6  10778.0  11398.3  12022.8  12651.6  13284.4  10777.9
 U, KJ/KG         7772.10  8236.71  6403.23  6855.31  7311.57  7772.01  8236.58  6403.21
 G, KJ/KG        -55377.9 -57734.5 -47858.5 -50125.5 -52415.6 -54728.1 -57062.3 -47292.8
 S, KJ/(KG)(K)    46.9169  47.3461  45.1050  45.5732  46.0275  46.4687  46.8978  44.6698

 M, (1/n)           2.471    2.471    2.471    2.471    2.471    2.471    2.471    2.471
 (dLV/dLP)t      -1.00003 -1.00005 -1.00001 -1.00001 -1.00002 -1.00003 -1.00004 -1.00001
 (dLV/dLT)p        1.0002   1.0003   1.0000   1.0001   1.0001   1.0001   1.0002   1.0000
 Cp, KJ/(KG)(K)   12.6167  12.6998  12.3652  12.4489  12.5326  12.6159  12.6986  12.3650
 GAMMAs            1.3639   1.3607   1.3739   1.3705   1.3672   1.3639   1.3607   1.3739
 SON VEL,M/SEC     2579.7   2620.8   2451.7   2495.2   2537.9   2579.7   2620.8   2451.7

 MOLE FRACTIONS

 *Br             1.590-14 2.437-14 3.711-15 5.779-15 9.427-15 1.488-14 2.280-14 3.448-15
 *CH             3.315-21 2.200-20 3.854-24 4.035-23 3.570-22 2.715-21 1.802-20 3.174-24
 CH2             3.831-15 1.419-14 3.584-17 1.822-16 8.238-16 3.354-15 1.242-14 3.149-17
 CH2CL           4.189-17 9.519-17 2.280-18 6.315-18 1.626-17 3.920-17 8.907-17 2.138-18
 CH2F            6.163-19 1.522-18 2.518-20 7.722-20 2.188-19 5.766-19 1.424-18 2.360-20
 CH3             2.0062-8 3.7457-8 2.1486-9 4.6726-9 9.6051-9 1.8771-8 3.5049-8 2.0141-9
 CH3Br           5.813-15 7.230-15 2.964-15 3.577-15 4.601-15 5.814-15 7.231-15 2.938-15
 CH3CL           1.827-12 2.345-12 7.691-13 1.049-12 1.398-12 1.827-12 2.345-12 7.691-13
 CH3F            2.398-14 3.286-14 8.062-15 1.191-14 1.711-14 2.399-14 3.287-14 8.061-15
 CH2OH           2.487-13 5.879-13 1.181-14 3.435-14 9.253-14 2.327-13 5.502-13 1.107-14
 CH3O            9.991-15 2.616-14 3.353-16 1.103-15 3.334-15 9.348-15 2.448-14 3.143-16
 CH4             4.6718-3 4.6706-3 4.6732-3 4.6731-3 4.6727-3 4.6722-3 4.6712-3 4.6733-3
 CH3OH           3.1963-9 4.4648-9 1.0045-9 1.5202-9 2.2339-9 3.1967-9 4.4658-9 1.0045-9
 *CN             1.425-18 7.026-18 3.979-21 2.918-20 1.851-19 1.030-18 5.097-18 2.887-21
 *CO             1.3499-6 2.5160-6 1.1924-7 2.5857-7 5.3031-7 1.0344-6 1.9281-6 9.2065-8
 COCL            1.567-20 4.960-20 2.372-22 9.901-22 3.732-21 1.283-20 4.062-20 1.954-22
 COHCL           1.409-17 2.937-17 9.719-19 2.413-18 5.617-18 1.234-17 2.572-17 8.541-19
 COHF            1.591-17 3.046-17 1.474-18 3.290-18 6.945-18 1.393-17 2.667-17 1.295-18
 COS             2.165-11 4.026-11 1.936-12 4.176-12 8.529-12 1.659-11 3.086-11 1.495-12
 *CO2            5.618 -9 9.625 -9 6.695-10 1.302 -9 2.418 -9 4.305 -9 7.376 -9 5.169-10
 COOH            1.931-15 5.411-15 4.483-17 1.604-16 5.246-16 1.582-15 4.432-15 3.693-17
 CS              2.746-14 8.104-14 4.932-16 1.893-15 6.593-15 2.104-14 6.210-14 3.808-16
 CS2             1.122-14 2.303-14 7.100-16 1.734-15 3.973-15 8.594-15 1.765-14 5.482-16
 C2H2,acetylene  2.688-12 8.193-12 4.316-14 1.724-13 6.232-13 2.060-12 6.279-12 3.332-14
 C2H2,vinylidene 4.041-18 2.035-17 1.135-20 8.470-20 5.466-19 3.097-18 1.560-17 8.766-21
 CH2CO,ketene    3.309-13 9.281-13 7.108-15 2.556-14 8.390-14 2.536-13 7.114-13 5.488-15
 O(CH)2O         1.291-19 4.673-19 1.157-21 5.683-21 2.494-20 9.895-20 3.582-19 8.936-22
 C2H3,vinyl      2.132-15 7.736-15 1.998-17 9.913-17 4.382-16 1.746-15 6.337-15 1.645-17
 C2H3CL          6.706-18 1.483-17 3.753-19 1.005-18 2.507-18 5.871-18 1.298-17 3.298-19
 C2H3F           1.643-19 3.820-19 7.743-21 2.203-20 5.822-20 1.439-19 3.345-19 6.803-21
 CH3CN           2.141-12 4.728-12 1.035-13 2.799-13 7.037-13 1.656-12 3.666-12 8.009-14
 CH3CO,acetyl    1.138-15 3.543-15 1.831-17 7.476-17 2.762-16 9.325-16 2.902-15 1.508-17
 C2H4            2.633 -9 4.783 -9 2.898-10 6.093-10 1.214 -9 2.305 -9 4.188 -9 2.546-10
 C2H4O,ethylen-o 8.840-18 2.408-17 2.415-19 8.351-19 2.645-18 7.739-18 2.108-17 2.122-19
 CH3CHO,ethanal  1.607-12 3.188-12 1.312-13 3.067-13 6.751-13 1.407-12 2.792-12 1.153-13
 CH3COOH         3.219-15 6.236-15 2.888-16 6.514-16 1.389-15 2.818-15 5.461-15 2.538-16
 OHCH2COOH       8.061-21 2.124-20 2.515-22 8.268-22 2.506-21 7.058-21 1.860-20 2.210-22
 C2H5            3.424-12 7.407-12 2.202-13 5.746-13 1.400-12 3.204-12 6.932-12 2.064-13
 C2H5Br          4.114-19 6.063-19 1.168-19 1.737-19 2.715-19 4.115-19 6.065-19 1.157-19
 C2H6            6.9270-8 8.4843-8 3.4214-8 4.4059-8 5.5709-8 6.9280-8 8.4866-8 3.4214-8
 C2H5OH          4.458-13 7.233-13 8.366-14 1.522-13 2.655-13 4.459-13 7.235-13 8.366-14
 CH3OCH3         1.121-15 2.083-15 1.316-16 2.832-16 5.775-16 1.121-15 2.084-15 1.316-16
 C2N2            7.158-21 3.717-20 1.351-23 1.066-22 7.230-22 4.278-21 2.235-20 8.091-24
 C3H3,2-propynl  1.548-18 7.991-18 3.740-21 2.874-20 1.908-19 1.110-18 5.731-18 2.707-21
 C3H4,allene     3.266-16 1.127-15 3.414-18 1.590-17 6.631-17 2.503-16 8.638-16 2.636-18
 C3H4,propyne    9.457-16 3.201-15 1.055-17 4.800-17 1.959-16 7.247-16 2.454-15 8.143-18
 C3H4,cyclo-     2.029-19 8.857-19 9.393-22 5.855-21 3.201-20 1.555-19 6.789-19 7.252-22
 C3H5,allyl      2.424-16 7.754-16 3.531-18 1.494-17 5.706-17 1.985-16 6.353-16 2.908-18
 C3H6,propylene  5.620-13 1.181-12 3.741-14 9.416-14 2.218-13 4.920-13 1.034-12 3.288-14
 C3H6,cyclo-     8.967-16 2.073-15 4.302-17 1.217-16 3.196-16 7.850-16 1.815-15 3.780-17
 C3H6O,acetone   2.052-16 4.455-16 1.225-17 3.203-17 7.822-17 1.796-16 3.901-16 1.076-17
 C3H6O,propanal  5.761-17 1.386-16 2.418-18 7.169-18 1.969-17 5.044-17 1.214-16 2.125-18
 C3H7,n-propyl   1.400-16 3.661-16 4.681-18 1.544-17 4.674-17 1.310-16 3.427-16 4.388-18
 C3H7,i-propyl   1.506-16 3.810-16 5.637-18 1.786-17 5.208-17 1.410-16 3.566-16 5.284-18
 C3H8            3.012-12 4.429-12 7.924-13 1.278-12 1.993-12 3.013-12 4.430-12 7.924-13
 C3H8O,1propanol 1.790-17 3.466-17 1.821-18 4.124-18 8.818-18 1.790-17 3.467-17 1.821-18
 C3H8O,2propanol 2.226-17 4.160-17 2.567-18 5.556-18 1.140-17 2.227-17 4.162-17 2.567-18
 C4H6,butadiene  1.420-18 5.042-18 1.348-20 6.492-20 2.795-19 1.088-18 3.865-18 1.041-20
 C4H6,1butyne    4.415-20 1.797-19 2.605-22 1.489-21 7.508-21 3.384-20 1.378-19 2.012-22
 C4H6,2butyne    5.944-20 2.265-19 4.404-22 2.320-21 1.085-20 4.556-20 1.736-19 3.401-22
 C4H8,1-butene   2.281-17 5.747-17 8.112-19 2.554-18 7.410-18 1.997-17 5.033-17 7.128-19
 C4H8,cis2-buten 1.165-17 2.848-17 4.594-19 1.395-18 3.909-18 1.020-17 2.495-17 4.037-19
 C4H8,tr2-butene 1.311-17 3.202-17 5.188-19 1.572-18 4.402-18 1.148-17 2.804-17 4.559-19
 C4H8,isobutene  1.623-17 3.905-17 6.773-19 2.014-18 5.542-18 1.421-17 3.420-17 5.951-19
 C4H8,cyclo-     6.116-21 1.662-20 1.681-22 5.802-22 1.834-21 5.355-21 1.455-20 1.477-22
 C4H9,n-butyl    1.695-20 5.144-20 3.387-22 1.342-21 4.822-21 1.586-20 4.815-20 3.175-22
 C4H9,i-butyl    1.116-20 3.308-20 2.420-22 9.310-22 3.255-21 1.044-20 3.096-20 2.268-22
 C4H9,s-butyl    1.150-20 3.477-20 2.322-22 9.169-22 3.283-21 1.076-20 3.255-20 2.176-22
 C4H9,t-butyl    4.466-21 1.257-20 1.155-22 4.177-22 1.377-21 4.179-21 1.177-20 1.083-22
 C4H10,n-butane  1.323-16 2.340-16 1.836-17 3.720-17 7.175-17 1.323-16 2.342-16 1.836-17
 C4H10,isobutane 5.101-17 8.819-17 7.679-18 1.512-17 2.838-17 5.103-17 8.824-17 7.680-18
 C5H12,n-pentane 4.947-21 1.054-20 3.622-22 9.221-22 2.200-21 4.948-21 1.055-20 3.622-22
 C5H12,i-pentane 4.925-21 1.043-20 3.724-22 9.360-22 2.209-21 4.927-21 1.043-20 3.724-22
 *CL             9.474-14 1.745-13 1.074-14 2.285-14 4.610-14 8.864-14 1.633-13 1.007-14
 CLCN            7.509-20 2.102-19 1.601-21 5.802-21 1.915-20 5.805-20 1.630-19 1.239-21
 CL2             1.230-20 2.082-20 1.997-21 3.828-21 7.006-21 1.231-20 2.082-20 1.997-21
 *F              2.376-19 6.435-19 7.106-21 2.435-20 7.650-20 2.223-19 6.021-19 6.661-21
 *H              1.8245-7 3.3960-7 1.9963-8 4.3008-8 8.7783-8 1.7069-7 3.1773-7 1.8713-8
 HBr             6.076-10 6.076-10 6.604-10 6.076-10 6.076-10 6.076-10 6.076-10 6.545-10
 HCN             1.780 -9 3.773 -9 9.918-11 2.550-10 6.113-10 1.376 -9 2.926 -9 7.676-11
 HCO             1.118-12 3.159-12 2.503-14 9.084-14 3.006-13 9.157-13 2.588-12 2.061-14
 HCCO            1.510-19 8.007-19 3.345-22 2.650-21 1.810-20 1.083-19 5.742-19 2.421-22
 HCL             5.5414-7 5.5413-7 5.5415-7 5.5415-7 5.5414-7 5.5414-7 5.5414-7 5.5415-7
 *HF             6.3656-8 6.3656-8 6.3698-8 6.3657-8 6.3657-8 6.3656-8 6.3656-8 6.3693-8
 HNC             2.160-11 5.443-11 6.605-13 2.105-12 6.160-12 1.670-11 4.220-11 5.112-13
 HNCO            5.236-12 1.103-11 2.989-13 7.613-13 1.811-12 4.048-12 8.553-12 2.314-13
 HNO             1.636-17 4.948-17 3.074-19 1.221-18 4.394-18 1.445-17 4.382-17 2.707-19
 HOCL            1.738-18 3.616-18 1.380-19 3.416-19 7.930-19 1.738-18 3.617-18 1.380-19
 HO2             2.499-21 1.018-20 1.819-23 1.034-22 5.195-22 2.338-21 9.524-21 1.705-23
 HOPO            8.1257-9 8.8491-9 5.2871-9 5.8803-9 6.4927-9 7.1197-9 7.7561-9 4.6475-9
 HPO             3.574-12 6.031-12 5.083-13 9.753-13 1.785-12 3.132-12 5.286-12 4.468-13
 *H2             8.6764-1 8.6765-1 8.6763-1 8.6764-1 8.6764-1 8.6764-1 8.6764-1 8.6763-1
 HCHO,formaldehy 1.240 -9 2.279 -9 1.315-10 2.800-10 5.648-10 1.085 -9 1.996 -9 1.156-10
 HCOOH           1.438-11 2.562-11 1.722-12 3.503-12 6.788-12 1.259-11 2.243-11 1.514-12
 H2F2            2.941-15 2.810-15 3.963-15 3.728-15 3.531-15 3.360-15 3.211-15 4.509-15
 H2O             8.5913-3 8.5901-3 8.5927-3 8.5925-3 8.5922-3 8.5917-3 8.5907-3 8.5927-3
 H2O2            1.250-17 3.367-17 4.079-19 1.387-18 4.329-18 1.250-17 3.368-17 4.079-19
 H2S             3.2966-4 3.2965-4 3.2968-4 3.2968-4 3.2967-4 3.2967-4 3.2965-4 3.2968-4
 *He             1.1837-1 1.1837-1 1.1837-1 1.1837-1 1.1837-1 1.1837-1 1.1837-1 1.1837-1
 *N              9.323-19 4.034-18 4.730-21 2.933-20 1.595-19 7.703-19 3.342-18 3.905-21
 NCO             2.593-19 1.105-18 1.211-21 7.376-21 3.945-20 1.876-19 8.017-19 8.785-22
 *NH             3.956-15 1.224-14 6.838-17 2.802-16 1.036-15 3.494-15 1.084-14 6.023-17
 NH2             2.054-10 3.936-10 1.988-11 4.503-11 9.603-11 1.939-10 3.726-10 1.868-11
 NH2F            2.823-20 5.548-20 2.688-21 6.265-21 1.374-20 2.848-20 5.614-20 2.695-21
 NH3             3.8256-4 3.7745-4 3.9378-4 3.9183-4 3.8926-4 3.8597-4 3.8190-4 3.9474-4
 NH2OH           4.934-15 9.765-15 4.617-16 1.082-15 2.386-15 4.978-15 9.880-15 4.628-16
 *NO             1.260-15 3.736-15 2.368-17 9.191-17 3.234-16 1.042-15 3.096-15 1.955-17
 *N2             7.7551-6 1.0305-5 2.1464-6 3.1230-6 4.4079-6 6.0484-6 8.0830-6 1.6654-6
 N2H2            3.918-16 9.226-16 1.724-17 5.075-17 1.380-16 3.491-16 8.267-16 1.522-17
 N2H4            1.127-14 1.901-14 1.796-15 3.500-15 6.486-15 1.148-14 1.946-14 1.805-15
 N2O             1.194-20 4.015-20 1.342-22 6.137-22 2.514-21 9.314-21 3.149-20 1.041-22
 *O              8.052-18 3.246-17 5.689-20 3.191-19 1.584-18 7.049-18 2.841-17 4.999-20
 *OH             5.134-11 1.131-10 3.122-12 8.305-12 2.061-11 4.803-11 1.059-10 2.927-12
 *O2             3.756-20 1.497-19 2.760-22 1.526-21 7.479-21 3.288-20 1.311-19 2.425-22
 *P              6.454-14 1.555-13 2.497-15 7.459-15 2.058-14 5.291-14 1.275-13 2.057-15
 PCL             1.000-17 1.881-17 9.728-19 2.140-18 4.443-18 8.761-18 1.649-17 8.551-19
 PF              1.371-18 2.568-18 1.355-19 2.961-19 6.118-19 1.201-18 2.251-18 1.191-19
 PH              4.610-11 8.660-11 4.503-12 9.891-12 2.051-11 4.039-11 7.589-11 3.958-12
 PH2             3.3589-8 4.5966-8 1.0503-8 1.5577-8 2.2431-8 3.1454-8 4.3056-8 9.8491-9
 PH3             3.4654-6 3.4522-6 3.4915-6 3.4858-6 3.4783-6 3.4686-6 3.4563-6 3.4928-6
 PN              3.290-12 6.071-12 2.941-13 6.391-13 1.310-12 2.545-12 4.712-12 2.277-13
 PO              6.508-12 1.198-11 6.395-13 1.368-12 2.769-12 5.334-12 9.824-12 5.270-13
 PO2             1.168-14 2.124-14 1.205-15 2.532-15 5.044-15 9.579-15 1.742-14 9.931-16
 PS              4.636-12 7.538-12 6.981-13 1.282-12 2.253-12 3.800-12 6.181-12 5.752-13
 P2              4.657-12 6.870-12 9.090-13 1.489-12 2.347-12 3.575-12 5.276-12 7.024-13
 P2O3            3.434-17 4.203-17 1.307-17 1.679-17 2.121-17 2.636-17 3.229-17 1.010-17
 P3              6.182-19 1.109-18 5.703-20 1.194-19 2.362-19 4.444-19 7.978-19 4.132-20
 P4              1.136-19 1.343-19 4.114-20 5.161-20 6.343-20 7.647-20 9.051-20 2.795-20
 *S              7.432-13 1.740-12 3.431-14 9.834-14 2.616-13 6.506-13 1.523-12 3.015-14
 SCL             4.417-19 9.561-19 2.856-20 7.433-20 1.807-19 4.133-19 8.946-19 2.678-20
 SH              1.5892-8 2.5257-8 2.9899-9 5.3098-9 9.0505-9 1.4869-8 2.3630-8 2.8027-9
 SN              1.034-15 2.693-15 3.034-17 1.004-16 3.047-16 8.545-16 2.231-15 2.505-17
 SO              8.021-14 1.744-13 4.789-15 1.252-14 3.056-14 7.021-14 1.527-13 4.208-15
 SO2             4.784-15 9.013-15 4.708-16 1.028-15 2.126-15 4.188-15 7.891-15 4.137-16
 S2              2.624-12 4.330-12 4.057-13 7.546-13 1.343-12 2.297-12 3.790-12 3.565-13
 S2O             4.889-17 9.673-17 4.046-18 9.407-18 2.061-17 4.280-17 8.468-17 3.555-18
 S3              4.448-18 8.277-18 4.539-19 9.796-19 2.002-18 3.894-18 7.245-18 3.988-19

  * THERMODYNAMIC PROPERTIES FITTED TO 20000.K

    PRODUCTS WHICH WERE CONSIDERED BUT WHOSE MOLE FRACTIONS
    WERE LESS THAN 1.000000E-20 FOR ALL ASSIGNED CONDITIONS

 BrCL            BrF             BrF3            BrF5            BrO            
 OBrO            BrOO            BrO3            Br2             BrBrO          
 BrOBr           *C              CBr             CBr2            CBr3           
 CBr4            CCL             CCLBr3          CCL2            CCL2Br2        
 CCL3            CCL3Br          CCL4            CF              CFBr3          
 CFCL            CFCLBr2         CFCL2           CFCL2Br         CFCL3          
 CF2             CF2Br2          CF2CL           CF2CLBr         CF2CL2         
 CF3             CF3Br           CF3CL           CF4             CHBr3          
 CHCL            CHCLBr2         CHCL2           CHCL2Br         CHCL3          
 CHF             CHFBr2          CHFCL           CHFCLBr         CHFCL2         
 CHF2            CHF2Br          CHF2CL          CHF3            CH2Br2         
 CH2CLBr         CH2CL2          CH2FBr          CH2FCL          CH2F2          
 CH3OOH          CNN             COCL2           COFCL           COF2           
 CP              *C2             C2CL            C2CL2           C2CL3          
 C2CL4           C2CL6           C2F             C2FCL           C2FCL3         
 C2F2            C2F2CL2         C2F3            C2F3CL          C2F4           
 C2F6            C2H             C2HCL           C2HCL3          C2HF           
 C2HFCL2         C2HF2CL         C2HF3           C2H2CL2         C2H2FCL        
 C2H2F2          HO(CO)2OH       CH2Br-COOH      CH2CL-COOH      CH3N2CH3       
 CH3O2CH3        CCN             CNC             OCCN            C2O            
 C2S2            *C3             C3H3,1-propynl  C3H6O,propylox  CNCOCN         
 C3OS            C3O2            C3S2            *C4             C4H2,butadiyne 
 C4H4,1,3-cyclo- C4H6,cyclo-     (CH3COOH)2      C4N2            *C5            
 C5H6,1,3cyclo-  C5H8,cyclo-     C5H10,1-pentene C5H10,cyclo-    C5H11,pentyl   
 C5H11,t-pentyl  CH3C(CH3)2CH3   C6H2            C6H5,phenyl     C6H5O,phenoxy  
 C6H6            C6H5OH,phenol   C6H10,cyclo-    C6H12,1-hexene  C6H12,cyclo-   
 C6H13,n-hexyl   C6H14,n-hexane  C7H7,benzyl     C7H8            C7H8O,cresol-mx
 C7H14,1-heptene C7H15,n-heptyl  C7H16,n-heptane C7H16,2-methylh C8H8,styrene   
 C8H10,ethylbenz C8H16,1-octene  C8H17,n-octyl   C8H18,n-octane  C8H18,isooctane
 C9H19,n-nonyl   C10H8,naphthale C10H21,n-decyl  C12H9,o-bipheny C12H10,biphenyl
 CLF             CLF3            CLF5            CLO             CLO2           
 CL2O            FCN             FCO             FO              FO2,FOO        
 FO2,OFO         F2              F2O             F2O2            FS2F           
 HCCN            HNO2            HNO3            HOF             HSO3F          
 H2SO4           H3F3            (HCOOH)2        H4F4            H5F5           
 H6F6            H7F7            NF              NF2             NF3            
 NHF             NHF2            NOCL            NOF             NOF3           
 NO2             NO2CL           NO2F            NO3             NO3F           
 NCN             N2F2            N2F4            NH2NO2          N2O3           
 N2O4            N2O5            N3              N3H             O3             
 PCL2            PCL3            PCL5            PFCL            PFCL2          
 PFCL4           PF2             PF2CL           PF2CL3          PF3            
 PF3CL2          PF4CL           PF5             POCL3           POFCL2         
 POF2CL          POF3            P2O4            P2O5            P3O6           
 P4O6            P4O7            P4O8            P4O9            P4O10          
 SCL2            SF              SF2             SF3             SF4            
 SF5             SF6             SOF2            SO2CL2          SO2FCL         
 SO2F2           SO3             S2CL2           S2F2            S4             
 S5              S6              S7              S8              Br2(cr)        
 Br2(L)          C(gr)           H2O(cr)         H2O(L)          H2SO4(L)       
 H3PO4(cr)       H3PO4(L)        NH4CL(II)       NH4CL(III)      NH4F(cr)       
 NH4F(L)         P(cr)           P(L)            P4O10(cr)       P4O10(L)       
 S(a)            S(b)            S(L)            SCL2(L)         S2CL2(L)       






 POINT ITN      T            H           HE          C           N 
                    S           P           O           F           CL
                    BR
   1    2    1350.000      -5.211     -11.116      -9.953     -15.302
                 -19.547     -17.963     -33.745     -51.169     -34.492
                 -37.757
   2    2    1400.000      -5.263     -11.187      -9.730     -15.182
                 -19.526     -18.026     -33.007     -50.350     -34.253
                 -37.698
   3    2    1450.000      -5.313     -11.256      -9.526     -15.075
                 -19.509     -18.089     -32.323     -49.591     -34.033
                 -37.646
   4    3    1500.000      -5.362     -11.324      -9.339     -14.980
                 -19.496     -18.152     -31.686     -48.884     -33.830
                 -37.599

 SINGULAR MATRIX, ITERATION  1  VARIABLE 10(EQLBRM)
   5   24    1300.000      -5.096     -10.917     -10.323     -15.496
                 -19.572     -17.963     -34.541     -51.989     -34.690
                 -37.699
   6    2    1350.000      -5.148     -10.990     -10.079     -15.362
                 -19.547     -18.026     -33.745     -51.106     -34.430
                 -37.694
   7    2    1400.000      -5.200     -11.061      -9.856     -15.241
                 -19.525     -18.088     -33.007     -50.287     -34.190
                 -37.635
   8    2    1450.000      -5.250     -11.130      -9.652     -15.133
                 -19.509     -18.151     -32.323     -49.528     -33.970
                 -37.583




               THERMODYNAMIC EQUILIBRIUM PROPERTIES AT ASSIGNED

                           TEMPERATURE AND PRESSURE

 CASE = saturn         

             REACTANT                       MOLES         ENERGY      TEMP
                                                         KJ/KG-MOL      K
 NAME        H2                           1.0000000         0.000      0.000
 NAME        He                           0.1350000         0.000      0.000
 NAME        CH4                          0.0053300         0.000      0.000
 NAME        N2                           0.0002270         0.000      0.000
 NAME        H2S                          0.0003760         0.000      0.000
 NAME        PH3                          0.0000040         0.000      0.000
 NAME        O2                           0.0049000         0.000      0.000
 NAME        HF                           0.0000001         0.000      0.000
 NAME        HCL                          0.0000006         0.000      0.000
 NAME        HBr                          0.0000000         0.000      0.000

 O/F=    0.00000  %FUEL=  0.000000  R,EQ.RATIO=*********  PHI,EQ.RATIO= 0.000000

 THERMODYNAMIC PROPERTIES

 P, BAR           3037.79  3037.79  3037.79  3037.79  3444.73  3444.73  3444.73  3444.73
 T, K             1350.00  1400.00  1450.00  1500.00  1300.00  1350.00  1400.00  1450.00
 RHO, KG/CU M    6.6868 1 6.4479 1 6.2256 1 6.0180 1 7.8742 1 7.5825 1 7.3117 1 7.0596 1
 H, KJ/KG         11398.3  12022.8  12651.5  13284.3  10777.9  11398.2  12022.7  12651.4
 U, KJ/KG         6855.28  7311.53  7771.94  8236.48  6403.19  6855.26  7311.49  7771.89
 G, KJ/KG        -49538.1 -51806.4 -54097.1 -56409.5 -46742.9 -48967.0 -51214.1 -53483.7
 S, KJ/(KG)(K)    45.1380  45.5923  46.0335  46.4626  44.2467  44.7150  45.1692  45.6104

 M, (1/n)           2.471    2.471    2.471    2.471    2.471    2.471    2.471    2.471
 (dLV/dLP)t      -1.00001 -1.00001 -1.00002 -1.00003 -1.00001 -1.00001 -1.00001 -1.00002
 (dLV/dLT)p        1.0001   1.0001   1.0001   1.0002   1.0000   1.0000   1.0001   1.0001
 Cp, KJ/(KG)(K)   12.4486  12.5322  12.6152  12.6977  12.3648  12.4484  12.5318  12.6147
 GAMMAs            1.3705   1.3672   1.3639   1.3607   1.3739   1.3705   1.3672   1.3639
 SON VEL,M/SEC     2495.2   2537.9   2579.7   2620.8   2451.7   2495.2   2537.9   2579.7

 MOLE FRACTIONS

 *Br             5.417-15 8.836-15 1.395-14 2.138-14 3.199-15 5.087-15 8.298-15 1.310-14
 *CH             3.324-23 2.940-22 2.236-21 1.484-20 2.629-24 2.752-23 2.435-22 1.852-21
 CH2             1.601-16 7.239-16 2.947-15 1.092-14 2.777-17 1.412-16 6.384-16 2.599-15
 CH2CL           5.920-18 1.524-17 3.675-17 8.350-17 2.007-18 5.559-18 1.431-17 3.451-17
 CH2F            7.239-20 2.051-19 5.406-19 1.335-18 2.216-20 6.798-20 1.926-19 5.076-19
 CH3             4.3801-9 9.0039-9 1.7597-8 3.2858-8 1.8914-9 4.1133-9 8.4556-9 1.6525-8
 CH3Br           3.577-15 4.601-15 5.814-15 7.232-15 2.903-15 3.577-15 4.601-15 5.814-15
 CH3CL           1.049-12 1.398-12 1.827-12 2.346-12 7.691-13 1.049-12 1.398-12 1.828-12
 CH3F            1.191-14 1.711-14 2.399-14 3.287-14 8.061-15 1.191-14 1.711-14 2.399-14
 CH2OH           3.220-14 8.674-14 2.182-13 5.158-13 1.040-14 3.024-14 8.146-14 2.049-13
 CH3O            1.034-15 3.126-15 8.764-15 2.295-14 2.952-16 9.708-16 2.935-15 8.230-15
 CH4             4.6731-3 4.6729-3 4.6724-3 4.6717-3 4.6733-3 4.6732-3 4.6730-3 4.6726-3
 CH3OH           1.5202-9 2.2340-9 3.1970-9 4.4665-9 1.0045-9 1.5203-9 2.2341-9 3.1972-9
 *CN             2.120-20 1.347-19 7.510-19 3.723-18 2.112-21 1.552-20 9.872-20 5.513-19
 *CO             1.9965-7 4.0948-7 7.9873-7 1.4889-6 7.1599-8 1.5527-7 3.1846-7 6.2121-7
 COCL            8.156-22 3.074-21 1.057-20 3.347-20 1.618-22 6.754-22 2.546-21 8.755-21
 COHCL           2.120-18 4.936-18 1.084-17 2.260-17 7.532-19 1.870-18 4.353-18 9.562-18
 COHF            2.891-18 6.103-18 1.224-17 2.344-17 1.142-18 2.550-18 5.382-18 1.079-17
 COS             3.224-12 6.586-12 1.281-11 2.383-11 1.162-12 2.507-12 5.122-12 9.962-12
 *CO2            1.006 -9 1.867 -9 3.324 -9 5.697 -9 4.020-10 7.821-10 1.452 -9 2.585 -9
 COOH            1.322-16 4.322-16 1.303-15 3.652-15 3.058-17 1.094-16 3.579-16 1.079-15
 CS              1.462-15 5.090-15 1.625-14 4.796-14 2.962-16 1.137-15 3.959-15 1.264-14
 CS2             1.339-15 3.068-15 6.636-15 1.363-14 4.264-16 1.041-15 2.386-15 5.161-15
 C2H2,acetylene  1.331-13 4.812-13 1.591-12 4.849-12 2.591-14 1.035-13 3.742-13 1.237-12
 C2H2,vinylidene 6.540-20 4.221-19 2.391-18 1.205-17 6.817-21 5.086-20 3.283-19 1.860-18
 CH2CO,ketene    1.974-14 6.479-14 1.958-13 5.494-13 4.268-15 1.535-14 5.039-14 1.523-13
 O(CH)2O         4.388-21 1.926-20 7.641-20 2.767-19 6.950-22 3.413-21 1.498-20 5.943-20
 C2H3,vinyl      8.165-17 3.610-16 1.439-15 5.221-15 1.363-17 6.762-17 2.990-16 1.191-15
 C2H3CL          8.829-19 2.203-18 5.159-18 1.141-17 2.909-19 7.787-19 1.943-18 4.550-18
 C2H3F           1.936-20 5.116-20 1.264-19 2.940-19 5.999-21 1.707-20 4.512-20 1.115-19
 CH3CN           2.169-13 5.461-13 1.287-12 2.857-12 6.240-14 1.691-13 4.263-13 1.006-12
 CH3CO,acetyl    6.158-17 2.275-16 7.682-16 2.391-15 1.249-17 5.100-17 1.884-16 6.362-16
 C2H4            5.354-10 1.067 -9 2.025 -9 3.681 -9 2.246-10 4.722-10 9.409-10 1.786 -9
 C2H4O,ethylen-o 7.339-19 2.324-18 6.801-18 1.853-17 1.872-19 6.472-19 2.050-18 5.999-18
 CH3CHO,ethanal  2.695-13 5.933-13 1.237-12 2.454-12 1.017-13 2.377-13 5.232-13 1.091-12
 CH3COOH         5.724-16 1.221-15 2.477-15 4.800-15 2.238-16 5.048-16 1.077-15 2.185-15
 OHCH2COOH       7.266-22 2.202-21 6.203-21 1.635-20 1.949-22 6.408-22 1.942-21 5.471-21
 C2H5            5.387-13 1.312-12 3.003-12 6.499-12 1.938-13 5.059-13 1.232-12 2.821-12
 C2H5Br          1.737-19 2.715-19 4.115-19 6.066-19 1.143-19 1.737-19 2.715-19 4.116-19
 C2H6            4.4061-8 5.5712-8 6.9288-8 8.4883-8 3.4215-8 4.4062-8 5.5715-8 6.9294-8
 C2H5OH          1.522-13 2.655-13 4.460-13 7.237-13 8.367-14 1.522-13 2.656-13 4.460-13
 CH3OCH3         2.833-16 5.775-16 1.122-15 2.084-15 1.316-16 2.833-16 5.776-16 1.122-15
 C2N2            6.399-23 4.354-22 2.585-21 1.357-20 4.912-24 3.891-23 2.653-22 1.580-21
 C3H3,2-propynl  2.081-20 1.381-19 8.034-19 4.149-18 1.977-21 1.519-20 1.009-19 5.868-19
 C3H4,allene     1.228-17 5.120-17 1.933-16 6.671-16 2.050-18 9.549-18 3.982-17 1.504-16
 C3H4,propyne    3.706-17 1.513-16 5.597-16 1.895-15 6.333-18 2.882-17 1.176-16 4.353-16
 C3H4,cyclo-     4.521-21 2.472-20 1.201-19 5.244-19 5.640-22 3.516-21 1.922-20 9.339-20
 C3H5,allyl      1.231-17 4.700-17 1.636-16 5.234-16 2.408-18 1.019-17 3.893-17 1.355-16
 C3H6,propylene  8.274-14 1.949-13 4.324-13 9.091-13 2.899-14 7.297-14 1.719-13 3.814-13
 C3H6,cyclo-     1.069-16 2.808-16 6.899-16 1.596-15 3.334-17 9.430-17 2.477-16 6.085-16
 C3H6O,acetone   2.815-17 6.874-17 1.579-16 3.429-16 9.493-18 2.482-17 6.063-17 1.392-16
 C3H6O,propanal  6.300-18 1.730-17 4.433-17 1.067-16 1.874-18 5.556-18 1.526-17 3.910-17
 C3H7,n-propyl   1.447-17 4.382-17 1.228-16 3.213-16 4.121-18 1.359-17 4.115-17 1.154-16
 C3H7,i-propyl   1.674-17 4.882-17 1.322-16 3.344-16 4.962-18 1.572-17 4.585-17 1.241-16
 C3H8            1.278-12 1.993-12 3.014-12 4.432-12 7.924-13 1.278-12 1.993-12 3.014-12
 C3H8O,1propanol 4.124-18 8.819-18 1.791-17 3.468-17 1.821-18 4.124-18 8.820-18 1.791-17
 C3H8O,2propanol 5.557-18 1.140-17 2.227-17 4.164-17 2.567-18 5.557-18 1.140-17 2.228-17
 C4H6,butadiene  5.013-20 2.158-19 8.402-19 2.986-18 8.097-21 3.899-20 1.679-19 6.535-19
 C4H6,1butyne    1.149-21 5.797-21 2.613-20 1.064-19 1.564-22 8.939-22 4.509-21 2.033-20
 C4H6,2butyne    1.792-21 8.377-21 3.518-20 1.341-19 2.645-22 1.393-21 6.516-21 2.737-20
 C4H8,1-butene   2.244-18 6.512-18 1.755-17 4.425-17 6.286-19 1.979-18 5.744-18 1.548-17
 C4H8,cis2-buten 1.225-18 3.436-18 8.966-18 2.193-17 3.560-19 1.081-18 3.030-18 7.908-18
 C4H8,tr2-butene 1.382-18 3.869-18 1.009-17 2.465-17 4.021-19 1.219-18 3.412-18 8.897-18
 C4H8,isobutene  1.770-18 4.870-18 1.249-17 3.007-17 5.248-19 1.561-18 4.295-18 1.102-17
 C4H8,cyclo-     5.099-22 1.612-21 4.707-21 1.279-20 1.303-22 4.496-22 1.421-21 4.151-21
 C4H9,n-butyl    1.258-21 4.521-21 1.487-20 4.516-20 2.981-22 1.182-21 4.246-21 1.397-20
 C4H9,i-butyl    8.728-22 3.052-21 9.788-21 2.904-20 2.130-22 8.197-22 2.866-21 9.193-21
 C4H9,s-butyl    8.596-22 3.078-21 1.009-20 3.053-20 2.044-22 8.072-22 2.891-21 9.475-21
 C4H9,t-butyl    3.915-22 1.291-21 3.919-21 1.103-20 1.017-22 3.677-22 1.213-21 3.680-21
 C4H10,n-butane  3.721-17 7.176-17 1.323-16 2.342-16 1.836-17 3.721-17 7.177-17 1.323-16
 C4H10,isobutane 1.512-17 2.838-17 5.104-17 8.827-17 7.680-18 1.512-17 2.838-17 5.105-17
 C5H12,n-pentane 9.222-22 2.200-21 4.950-21 1.056-20 3.622-22 9.223-22 2.201-21 4.951-21
 C5H12,i-pentane 9.360-22 2.210-21 4.928-21 1.044-20 3.724-22 9.361-22 2.210-21 4.929-21
 *CL             2.142-14 4.321-14 8.309-14 1.530-13 9.456-15 2.012-14 4.058-14 7.803-14
 CLCN            4.496-21 1.486-20 4.513-20 1.270-19 9.656-22 3.506-21 1.160-20 3.528-20
 CL2             3.828-21 7.006-21 1.231-20 2.082-20 1.997-21 3.828-21 7.006-21 1.231-20
 *F              2.282-20 7.172-20 2.084-19 5.644-19 6.255-21 2.143-20 6.735-20 1.957-19
 *H              4.0315-8 8.2287-8 1.6001-7 2.9783-7 1.7573-8 3.7859-8 7.7274-8 1.5026-7
 HBr             6.076-10 6.076-10 6.076-10 6.076-10 6.466-10 6.076-10 6.076-10 6.076-10
 HCN             1.976-10 4.744-10 1.070 -9 2.280 -9 5.981-11 1.540-10 3.703-10 8.365-10
 HCO             7.482-14 2.476-13 7.543-13 2.132-12 1.707-14 6.196-14 2.051-13 6.247-13
 HCCO            1.918-21 1.310-20 7.837-20 4.157-19 1.768-22 1.401-21 9.571-21 5.724-20
 HCL             5.5415-7 5.5415-7 5.5414-7 5.5414-7 5.5415-7 5.5415-7 5.5415-7 5.5414-7
 *HF             6.3657-8 6.3657-8 6.3656-8 6.3656-8 6.3692-8 6.3657-8 6.3657-8 6.3657-8
 HNC             1.631-12 4.780-12 1.298-11 3.288-11 3.983-13 1.272-12 3.732-12 1.015-11
 HNCO            5.899-13 1.405-12 3.147-12 6.665-12 1.803-13 4.600-13 1.097-12 2.460-12
 HNO             1.077-18 3.880-18 1.278-17 3.886-17 2.392-19 9.523-19 3.435-18 1.133-17
 HOCL            3.416-19 7.930-19 1.738-18 3.617-18 1.380-19 3.416-19 7.930-19 1.738-18
 HOPO            5.1696-9 5.7089-9 6.2616-9 6.8232-9 4.0999-9 4.5609-9 5.0375-9 5.5262-9
 HPO             8.575-13 1.570-12 2.754-12 4.650-12 3.942-13 7.565-13 1.385-12 2.431-12
 *H2             8.6763-1 8.6764-1 8.6764-1 8.6764-1 8.6763-1 8.6763-1 8.6763-1 8.6764-1
 HCHO,formaldehy 2.461-10 4.963-10 9.537-10 1.754 -9 1.019-10 2.170-10 4.377-10 8.411-10
 HCOOH           3.078-12 5.965-12 1.106-11 1.972-11 1.335-12 2.715-12 5.260-12 9.757-12
 H2F2            4.243-15 4.018-15 3.824-15 3.654-15 5.113-15 4.811-15 4.556-15 4.336-15
 H2O             8.5926-3 8.5924-3 8.5919-3 8.5912-3 8.5927-3 8.5926-3 8.5925-3 8.5921-3
 H2O2            1.387-18 4.329-18 1.250-17 3.368-17 4.079-19 1.387-18 4.330-18 1.250-17
 H2S             3.2968-4 3.2967-4 3.2967-4 3.2966-4 3.2968-4 3.2968-4 3.2967-4 3.2967-4
 *He             1.1837-1 1.1837-1 1.1837-1 1.1837-1 1.1837-1 1.1837-1 1.1837-1 1.1837-1
 *N              2.425-20 1.320-19 6.388-19 2.778-18 3.240-21 2.013-20 1.098-19 5.318-19
 NCO             5.358-21 2.870-20 1.367-19 5.856-19 6.427-22 3.924-21 2.104-20 1.004-19
 *NH             2.471-16 9.151-16 3.091-15 9.608-15 5.321-17 2.185-16 8.100-16 2.740-15
 NH2             4.236-11 9.047-11 1.830-10 3.525-10 1.758-11 3.989-11 8.528-11 1.728-10
 NH2F            6.288-21 1.381-20 2.868-20 5.664-20 2.700-21 6.305-21 1.386-20 2.883-20
 NH3             3.9322-4 3.9120-4 3.8860-4 3.8536-4 3.9548-4 3.9428-4 3.9269-4 3.9063-4
 NH2OH           1.086-15 2.398-15 5.013-15 9.971-15 4.637-16 1.089-15 2.407-15 5.039-15
 *NO             7.597-17 2.677-16 8.638-16 2.573-15 1.622-17 6.309-17 2.225-16 7.191-16
 *N2             2.4284-6 3.4375-6 4.7339-6 6.3546-6 1.3000-6 1.8987-6 2.6937-6 3.7201-6
 N2H2            4.491-17 1.225-16 3.110-16 7.397-16 1.347-17 3.982-17 1.088-16 2.771-16
 N2H4            3.525-15 6.551-15 1.163-14 1.982-14 1.811-15 3.544-15 6.601-15 1.176-14
 N2O             4.773-22 1.960-21 7.290-21 2.476-20 8.125-23 3.732-22 1.536-21 5.729-21
 *O              2.804-19 1.392-18 6.194-18 2.497-17 4.409-20 2.473-19 1.228-18 5.462-18
 *OH             7.785-12 1.932-11 4.503-11 9.924-11 2.749-12 7.311-12 1.814-11 4.229-11
 *O2             1.341-21 6.572-21 2.889-20 1.152-19 2.138-22 1.183-21 5.795-21 2.548-20
 *P              6.146-15 1.697-14 4.361-14 1.051-13 1.704-15 5.092-15 1.406-14 3.614-14
 PCL             1.881-18 3.907-18 7.705-18 1.450-17 7.544-19 1.659-18 3.447-18 6.800-18
 PF              2.603-19 5.379-19 1.056-18 1.980-18 1.051-19 2.297-19 4.746-19 9.320-19
 PH              8.696-12 1.803-11 3.552-11 6.676-11 3.492-12 7.672-12 1.591-11 3.134-11
 PH2             1.4609-8 2.1040-8 2.9509-8 4.0402-8 9.2521-9 1.3725-8 1.9769-8 2.7731-8
 PH3             3.4875-6 3.4805-6 3.4714-6 3.4599-6 3.4939-6 3.4890-6 3.4824-6 3.4739-6
 PN              4.955-13 1.017-12 1.980-12 3.675-12 1.775-13 3.865-13 7.944-13 1.549-12
 PO              1.127-12 2.282-12 4.398-12 8.101-12 4.366-13 9.340-13 1.891-12 3.645-12
 PO2             2.086-15 4.157-15 7.897-15 1.436-14 8.227-16 1.729-15 3.445-15 6.545-15
 PS              1.057-12 1.857-12 3.133-12 5.096-12 4.765-13 8.756-13 1.538-12 2.596-12
 P2              1.151-12 1.815-12 2.765-12 4.082-12 5.466-13 8.956-13 1.413-12 2.153-12
 P2O3            1.298-17 1.639-17 2.039-17 2.499-17 7.861-18 1.010-17 1.276-17 1.588-17
 P3              8.652-20 1.713-19 3.224-19 5.793-19 3.021-20 6.327-20 1.253-19 2.360-19
 P4              3.509-20 4.314-20 5.205-20 6.167-20 1.920-20 2.410-20 2.966-20 3.580-20
 *S              8.641-14 2.299-13 5.717-13 1.338-12 2.658-14 7.621-14 2.027-13 5.041-13
 SCL             6.968-20 1.694-19 3.874-19 8.386-19 2.514-20 6.543-20 1.591-19 3.638-19
 SH              4.9774-9 8.4839-9 1.3938-8 2.2151-8 2.6320-9 4.6742-9 7.9671-9 1.3089-8
 SN              8.302-17 2.522-16 7.086-16 1.854-15 2.079-17 6.894-17 2.097-16 5.899-16
 SO              1.100-14 2.686-14 6.170-14 1.341-13 3.711-15 9.699-15 2.368-14 5.441-14
 SO2             9.034-16 1.868-15 3.680-15 6.934-15 3.649-16 7.967-16 1.648-15 3.245-15
 S2              6.631-13 1.180-12 2.018-12 3.331-12 3.144-13 5.848-13 1.041-12 1.780-12
 S2O             8.266-18 1.811-17 3.761-17 7.441-17 3.135-18 7.290-18 1.597-17 3.316-17
 S3              8.608-19 1.759-18 3.422-18 6.366-18 3.517-19 7.591-19 1.551-18 3.017-18

  * THERMODYNAMIC PROPERTIES FITTED TO 20000.K

    PRODUCTS WHICH WERE CONSIDERED BUT WHOSE MOLE FRACTIONS
    WERE LESS THAN 1.000000E-20 FOR ALL ASSIGNED CONDITIONS

 BrCL            BrF             BrF3            BrF5            BrO            
 OBrO            BrOO            BrO3            Br2             BrBrO          
 BrOBr           *C              CBr             CBr2            CBr3           
 CBr4            CCL             CCLBr3          CCL2            CCL2Br2        
 CCL3            CCL3Br          CCL4            CF              CFBr3          
 CFCL            CFCLBr2         CFCL2           CFCL2Br         CFCL3          
 CF2             CF2Br2          CF2CL           CF2CLBr         CF2CL2         
 CF3             CF3Br           CF3CL           CF4             CHBr3          
 CHCL            CHCLBr2         CHCL2           CHCL2Br         CHCL3          
 CHF             CHFBr2          CHFCL           CHFCLBr         CHFCL2         
 CHF2            CHF2Br          CHF2CL          CHF3            CH2Br2         
 CH2CLBr         CH2CL2          CH2FBr          CH2FCL          CH2F2          
 CH3OOH          CNN             COCL2           COFCL           COF2           
 CP              *C2             C2CL            C2CL2           C2CL3          
 C2CL4           C2CL6           C2F             C2FCL           C2FCL3         
 C2F2            C2F2CL2         C2F3            C2F3CL          C2F4           
 C2F6            C2H             C2HCL           C2HCL3          C2HF           
 C2HFCL2         C2HF2CL         C2HF3           C2H2CL2         C2H2FCL        
 C2H2F2          HO(CO)2OH       CH2Br-COOH      CH2CL-COOH      CH3N2CH3       
 CH3O2CH3        CCN             CNC             OCCN            C2O            
 C2S2            *C3             C3H3,1-propynl  C3H6O,propylox  CNCOCN         
 C3OS            C3O2            C3S2            *C4             C4H2,butadiyne 
 C4H4,1,3-cyclo- C4H6,cyclo-     (CH3COOH)2      C4N2            *C5            
 C5H6,1,3cyclo-  C5H8,cyclo-     C5H10,1-pentene C5H10,cyclo-    C5H11,pentyl   
 C5H11,t-pentyl  CH3C(CH3)2CH3   C6H2            C6H5,phenyl     C6H5O,phenoxy  
 C6H6            C6H5OH,phenol   C6H10,cyclo-    C6H12,1-hexene  C6H12,cyclo-   
 C6H13,n-hexyl   C6H14,n-hexane  C7H7,benzyl     C7H8            C7H8O,cresol-mx
 C7H14,1-heptene C7H15,n-heptyl  C7H16,n-heptane C7H16,2-methylh C8H8,styrene   
 C8H10,ethylbenz C8H16,1-octene  C8H17,n-octyl   C8H18,n-octane  C8H18,isooctane
 C9H19,n-nonyl   C10H8,naphthale C10H21,n-decyl  C12H9,o-bipheny C12H10,biphenyl
 CLF             CLF3            CLF5            CLO             CLO2           
 CL2O            FCN             FCO             FO              FO2,FOO        
 FO2,OFO         F2              F2O             F2O2            FS2F           
 HCCN            HNO2            HNO3            HOF             HO2            
 HSO3F           H2SO4           H3F3            (HCOOH)2        H4F4           
 H5F5            H6F6            H7F7            NF              NF2            
 NF3             NHF             NHF2            NOCL            NOF            
 NOF3            NO2             NO2CL           NO2F            NO3            
 NO3F            NCN             N2F2            N2F4            NH2NO2         
 N2O3            N2O4            N2O5            N3              N3H            
 O3              PCL2            PCL3            PCL5            PFCL           
 PFCL2           PFCL4           PF2             PF2CL           PF2CL3         
 PF3             PF3CL2          PF4CL           PF5             POCL3          
 POFCL2          POF2CL          POF3            P2O4            P2O5           
 P3O6            P4O6            P4O7            P4O8            P4O9           
 P4O10           SCL2            SF              SF2             SF3            
 SF4             SF5             SF6             SOF2            SO2CL2         
 SO2FCL          SO2F2           SO3             S2CL2           S2F2           
 S4              S5              S6              S7              S8             
 Br2(cr)         Br2(L)          C(gr)           H2O(cr)         H2O(L)         
 H2SO4(L)        H3PO4(cr)       H3PO4(L)        NH4CL(II)       NH4CL(III)     
 NH4F(cr)        NH4F(L)         P(cr)           P(L)            P4O10(cr)      
 P4O10(L)        S(a)            S(b)            S(L)            SCL2(L)        
 S2CL2(L)       






 POINT ITN      T            H           HE          C           N 
                    S           P           O           F           CL
                    BR
   1    2    1500.000      -5.299     -11.198      -9.465     -15.036
                 -19.496     -18.214     -31.686     -48.821     -33.768
                 -37.536




               THERMODYNAMIC EQUILIBRIUM PROPERTIES AT ASSIGNED

                           TEMPERATURE AND PRESSURE

 CASE = saturn         

             REACTANT                       MOLES         ENERGY      TEMP
                                                         KJ/KG-MOL      K
 NAME        H2                           1.0000000         0.000      0.000
 NAME        He                           0.1350000         0.000      0.000
 NAME        CH4                          0.0053300         0.000      0.000
 NAME        N2                           0.0002270         0.000      0.000
 NAME        H2S                          0.0003760         0.000      0.000
 NAME        PH3                          0.0000040         0.000      0.000
 NAME        O2                           0.0049000         0.000      0.000
 NAME        HF                           0.0000001         0.000      0.000
 NAME        HCL                          0.0000006         0.000      0.000
 NAME        HBr                          0.0000000         0.000      0.000

 O/F=    0.00000  %FUEL=  0.000000  R,EQ.RATIO=*********  PHI,EQ.RATIO= 0.000000

 THERMODYNAMIC PROPERTIES

 P, BAR           3444.73
 T, K             1500.00
 RHO, KG/CU M    6.8242 1
 H, KJ/KG         13284.2
 U, KJ/KG         8236.40
 G, KJ/KG        -55774.9
 S, KJ/(KG)(K)    46.0394

 M, (1/n)           2.471
 (dLV/dLP)t      -1.00002
 (dLV/dLT)p        1.0001
 Cp, KJ/(KG)(K)   12.6969
 GAMMAs            1.3607
 SON VEL,M/SEC     2620.8

 MOLE FRACTIONS

 *Br             2.007-14
 *CH             1.229-20
 CH2             9.627-15
 CH2CL           7.842-17
 CH2F            1.254-18
 CH3             3.0858-8
 CH3Br           7.232-15
 CH3CL           2.346-12
 CH3F            3.287-14
 CH2OH           4.844-13
 CH3O            2.156-14
 CH4             4.6720-3
 CH3OH           4.4670-9
 *CN             2.738-18
 *CO             1.1581-6
 COCL            2.772-20
 COHCL           1.993-17
 COHF            2.067-17
 COS             1.853-11
 *CO2            4.4309-9
 COOH            3.025-15
 CS              3.730-14
 CS2             1.060-14
 C2H2,acetylene  3.772-12
 C2H2,vinylidene 9.369-18
 CH2CO,ketene    4.273-13
 O(CH)2O         2.152-19
 C2H3,vinyl      4.324-15
 C2H3CL          1.006-17
 C2H3F           2.593-19
 CH3CN           2.238-12
 CH3CO,acetyl    1.981-15
 C2H4            3.2464-9
 C2H4O,ethylen-o 1.635-17
 CH3CHO,ethanal  2.164-12
 CH3COOH         4.234-15
 OHCH2COOH       1.442-20
 C2H5            6.104-12
 C2H5Br          6.067-19
 C2H6            8.4896-8
 C2H5OH          7.239-13
 CH3OCH3         2.084-15
 C3H3,2-propynl  3.031-18
 C3H4,allene     5.189-16
 C3H4,propyne    1.474-15
 C3H4,cyclo-     4.079-19
 C3H5,allyl      4.336-16
 C3H6,propylene  8.019-13
 C3H6,cyclo-     1.408-15
 C3H6O,acetone   3.025-16
 C3H6O,propanal  9.410-17
 C3H7,n-propyl   3.018-16
 C3H7,i-propyl   3.141-16
 C3H8            4.433-12
 C3H8O,1propanol 3.469-17
 C3H8O,2propanol 4.165-17
 C4H6,butadiene  2.323-18
 C4H6,1butyne    8.279-20
 C4H6,2butyne    1.043-19
 C4H8,1-butene   3.903-17
 C4H8,cis2-buten 1.934-17
 C4H8,tr2-butene 2.175-17
 C4H8,isobutene  2.652-17
 C4H8,cyclo-     1.129-20
 C4H9,n-butyl    4.242-20
 C4H9,i-butyl    2.727-20
 C4H9,s-butyl    2.867-20
 C4H9,t-butyl    1.036-20
 C4H10,n-butane  2.343-16
 C4H10,isobutane 8.830-17
 C5H12,n-pentane 1.056-20
 C5H12,i-pentane 1.044-20
 *CL             1.437-13
 CLCN            9.947-20
 CL2             2.082-20
 *F              5.300-19
 *H              2.7969-7
 HBr             6.076-10
 HCN             1.7853-9
 HCO             1.766-12
 HCCO            3.036-19
 HCL             5.5414-7
 *HF             6.3656-8
 HNC             2.575-11
 HNCO            5.220-12
 HNO             3.451-17
 HOCL            3.617-18
 HOPO            6.0234-9
 HPO             4.104-12
 *H2             8.6764-1
 HCHO,formaldehy 1.5468-9
 HCOOH           1.739-11
 H2F2            4.144-15
 H2O             8.5916-3
 H2O2            3.368-17
 H2S             3.2966-4
 *He             1.1837-1
 *N              2.317-18
 NCO             4.307-19
 *NH             8.532-15
 NH2             3.333-10
 NH2F            5.704-20
 NH3             3.8805-4
 NH2OH           1.004-14
 *NO             2.146-15
 *N2             5.0111-6
 N2H2            6.614-16
 N2H4            2.010-14
 N2O             1.953-20
 *O              2.202-17
 *OH             9.319-11
 *O2             1.016-19
 *P              8.714-14
 PCL             1.280-17
 PF              1.748-18
 PH              5.892-11
 PH2             3.7976-8
 PH3             3.4632-6
 PN              2.881-12
 PO              6.715-12
 PO2             1.191-14
 PS              4.224-12
 P2              3.181-12
 P2O3            1.947-17
 P3              4.243-19
 P4              4.245-20
 *S              1.180-12
 SCL             7.875-19
 SH              2.0801-8
 SN              1.546-15
 SO              1.183-13
 SO2             6.116-15
 S2              2.937-12
 S2O             6.563-17
 S3              5.614-18

  * THERMODYNAMIC PROPERTIES FITTED TO 20000.K

    PRODUCTS WHICH WERE CONSIDERED BUT WHOSE MOLE FRACTIONS
    WERE LESS THAN 1.000000E-20 FOR ALL ASSIGNED CONDITIONS

 BrCL            BrF             BrF3            BrF5            BrO            
 OBrO            BrOO            BrO3            Br2             BrBrO          
 BrOBr           *C              CBr             CBr2            CBr3           
 CBr4            CCL             CCLBr3          CCL2            CCL2Br2        
 CCL3            CCL3Br          CCL4            CF              CFBr3          
 CFCL            CFCLBr2         CFCL2           CFCL2Br         CFCL3          
 CF2             CF2Br2          CF2CL           CF2CLBr         CF2CL2         
 CF3             CF3Br           CF3CL           CF4             CHBr3          
 CHCL            CHCLBr2         CHCL2           CHCL2Br         CHCL3          
 CHF             CHFBr2          CHFCL           CHFCLBr         CHFCL2         
 CHF2            CHF2Br          CHF2CL          CHF3            CH2Br2         
 CH2CLBr         CH2CL2          CH2FBr          CH2FCL          CH2F2          
 CH3OOH          CNN             COCL2           COFCL           COF2           
 CP              *C2             C2CL            C2CL2           C2CL3          
 C2CL4           C2CL6           C2F             C2FCL           C2FCL3         
 C2F2            C2F2CL2         C2F3            C2F3CL          C2F4           
 C2F6            C2H             C2HCL           C2HCL3          C2HF           
 C2HFCL2         C2HF2CL         C2HF3           C2H2CL2         C2H2FCL        
 C2H2F2          HO(CO)2OH       CH2Br-COOH      CH2CL-COOH      CH3N2CH3       
 CH3O2CH3        CCN             CNC             OCCN            C2N2           
 C2O             C2S2            *C3             C3H3,1-propynl  C3H6O,propylox 
 CNCOCN          C3OS            C3O2            C3S2            *C4            
 C4H2,butadiyne  C4H4,1,3-cyclo- C4H6,cyclo-     (CH3COOH)2      C4N2           
 *C5             C5H6,1,3cyclo-  C5H8,cyclo-     C5H10,1-pentene C5H10,cyclo-   
 C5H11,pentyl    C5H11,t-pentyl  CH3C(CH3)2CH3   C6H2            C6H5,phenyl    
 C6H5O,phenoxy   C6H6            C6H5OH,phenol   C6H10,cyclo-    C6H12,1-hexene 
 C6H12,cyclo-    C6H13,n-hexyl   C6H14,n-hexane  C7H7,benzyl     C7H8           
 C7H8O,cresol-mx C7H14,1-heptene C7H15,n-heptyl  C7H16,n-heptane C7H16,2-methylh
 C8H8,styrene    C8H10,ethylbenz C8H16,1-octene  C8H17,n-octyl   C8H18,n-octane 
 C8H18,isooctane C9H19,n-nonyl   C10H8,naphthale C10H21,n-decyl  C12H9,o-bipheny
 C12H10,biphenyl CLF             CLF3            CLF5            CLO            
 CLO2            CL2O            FCN             FCO             FO             
 FO2,FOO         FO2,OFO         F2              F2O             F2O2           
 FS2F            HCCN            HNO2            HNO3            HOF            
 HO2             HSO3F           H2SO4           H3F3            (HCOOH)2       
 H4F4            H5F5            H6F6            H7F7            NF             
 NF2             NF3             NHF             NHF2            NOCL           
 NOF             NOF3            NO2             NO2CL           NO2F           
 NO3             NO3F            NCN             N2F2            N2F4           
 NH2NO2          N2O3            N2O4            N2O5            N3             
 N3H             O3              PCL2            PCL3            PCL5           
 PFCL            PFCL2           PFCL4           PF2             PF2CL          
 PF2CL3          PF3             PF3CL2          PF4CL           PF5            
 POCL3           POFCL2          POF2CL          POF3            P2O4           
 P2O5            P3O6            P4O6            P4O7            P4O8           
 P4O9            P4O10           SCL2            SF              SF2            
 SF3             SF4             SF5             SF6             SOF2           
 SO2CL2          SO2FCL          SO2F2           SO3             S2CL2          
 S2F2            S4              S5              S6              S7             
 S8              Br2(cr)         Br2(L)          C(gr)           H2O(cr)        
 H2O(L)          H2SO4(L)        H3PO4(cr)       H3PO4(L)        NH4CL(II)      
 NH4CL(III)      NH4F(cr)        NH4F(L)         P(cr)           P(L)           
 P4O10(cr)       P4O10(L)        S(a)            S(b)            S(L)           
 SCL2(L)         S2CL2(L)       



