
 *******************************************************************************

         NASA-GLENN CHEMICAL EQUILIBRIUM PROGRAM CEA2, MAY 21, 2004
                   BY  BONNIE MCBRIDE AND SANFORD GORDON
      REFS: NASA RP-1311, PART I, 1994 AND NASA RP-1311, PART II, 1996

 *******************************************************************************



 prob
 case=saturn tp
 t,k= 300,350,400,450,500,550,600,650,700,750
 p,bar= 13.21, 22.20, 34.89, 52.02, 74.41, 102.88, 138.33, 181.70, 234.00, 296.30
 react
   name=H2 moles=1.0
   name=He moles=0.135
   name=CH4 moles=5.33e-3
   name=N2 moles = 2.27e-4
   name=H2S moles=3.76e-4
   name=PH3 moles = 4.0e-6
  
 # ten time solar water
   name=O2 moles = 4.9e-3
 # all others are one time solar
   name=HF moles = 7.26e-8
 #  name=Na moles = 3.48e-6
 #  name=Mg moles = 7.96e-5
 #  name=Si moles=6.47e-5
  
   name=HCL moles = 6.32e-7
 #  name=K moles = 2.14e-7
 #  name=Ca moles = 4.38e-6
 #  name=GeH4 moles = 8.93e-9
   name=HBr moles=6.93e-10
  
 output    trace=1e-20
 plot t p HOPO H3PO4(cr) PF3 PH2 PH3 POF3 H3PO4(L) HPO PH PN PO PS P2 P2O3 P4 PO2
  PCL P3
  
 end

 OPTIONS: TP=T  HP=F  SP=F  TV=F  UV=F  SV=F  DETN=F  SHOCK=F  REFL=F  INCD=F
 RKT=F  FROZ=F  EQL=F  IONS=F  SIUNIT=T  DEBUGF=F  SHKDBG=F  DETDBG=F  TRNSPT=F

 T,K =   300.0000   350.0000   400.0000   450.0000   500.0000   550.0000   600.0000

 T,K =   650.0000   700.0000   750.0000

 TRACE= 1.00E-20  S/R= 0.000000E+00  H/R= 0.000000E+00  U/R= 0.000000E+00

 P,BAR =    13.210000    22.200000    34.890000    52.020000    74.410000   102.880000   138.330000

 P,BAR =   181.700000   234.000000   296.300000

    REACTANT           MOLES    (ENERGY/R),K   TEMP,K  DENSITY
        EXPLODED FORMULA
 N: H2               1.000000   0.000000E+00     0.00  0.0000
          H  2.00000
 N: He               0.135000   0.000000E+00     0.00  0.0000
          HE 1.00000
 N: CH4              0.005330   0.000000E+00     0.00  0.0000
          C  1.00000  H  4.00000
 N: N2               0.000227   0.000000E+00     0.00  0.0000
          N  2.00000
 N: H2S              0.000376   0.000000E+00     0.00  0.0000
          H  2.00000  S  1.00000
 N: PH3              0.000004   0.000000E+00     0.00  0.0000
          P  1.00000  H  3.00000
 N: O2               0.004900   0.000000E+00     0.00  0.0000
          O  2.00000
 N: HF               0.000000   0.000000E+00     0.00  0.0000
          H  1.00000  F  1.00000
 N: HCL              0.000001   0.000000E+00     0.00  0.0000
          H  1.00000  CL 1.00000
 N: HBr              0.000000   0.000000E+00     0.00  0.0000
          H  1.00000  BR 1.00000

  SPECIES BEING CONSIDERED IN THIS SYSTEM
 (CONDENSED PHASE MAY HAVE NAME LISTED SEVERAL TIMES)
  LAST thermo.inp UPDATE:    9/09/04

  g 3/97  *Br              tpis89  BrCL             tpis89  BrF            
  tpis89  BrF3             tpis89  BrF5             j 3/96  BrO            
  j 3/96  OBrO             j 3/96  BrOO             j 3/96  BrO3           
  tpis89  Br2              j 3/96  BrBrO            j 3/96  BrOBr          
  g 7/97  *C               tpis91  CBr              tpis91  CBr2           
  tpis91  CBr3             g 8/99  CBr4             g 8/99  CCL            
  tpis91  CCLBr3           g 8/99  CCL2             tpis91  CCL2Br2        
  n12/93  CCL3             tpis91  CCL3Br           tpis91  CCL4           
  tpis91  CF               tpis91  CFBr3            g 9/99  CFCL           
  tpis91  CFCLBr2          tpis91  CFCL2            tpis91  CFCL2Br        
  g 7/99  CFCL3            g 9/99  CF2              tpis91  CF2Br2         
  tpis91  CF2CL            tpis91  CF2CLBr          g 7/99  CF2CL2         
  g 8/99  CF3              tpis91  CF3Br            g 7/99  CF3CL          
  g 7/99  CF4              tpis79  *CH              g 8/99  CHBr3          
  g 9/99  CHCL             tpis91  CHCLBr2          n12/93  CHCL2          
  tpis91  CHCL2Br          g 7/99  CHCL3            g 8/99  CHF            
  tpis91  CHFBr2           tpis91  CHFCL            tpis91  CHFCLBr        
  g 7/99  CHFCL2           n 6/88  CHF2             tpis91  CHF2Br         
  g 7/99  CHF2CL           g 8/99  CHF3             g 4/02  CH2            
  g 8/99  CH2Br2           g12/99  CH2CL            tpis91  CH2CLBr        
  tpis91  CH2CL2           n 6/88  CH2F             tpis91  CH2FBr         
  g 7/99  CH2FCL           g 8/99  CH2F2            g 4/02  CH3            
  g 8/99  CH3Br            tpis91  CH3CL            g 8/99  CH3F           
  g11/00  CH2OH            g 7/00  CH3O             g 8/99  CH4            
  g 7/00  CH3OH            srd 01  CH3OOH           g 8/99  *CN            
  g12/99  CNN              tpis79  *CO              tpis91  COCL           
  tpis91  COCL2            tpis91  COFCL            tpis91  COF2           
  tpis91  COHCL            tpis91  COHF             g 5/01  COS            
  g 9/99  *CO2             tpis91  COOH             tpis91  CP             
  g11/01  CS               g 6/95  CS2              tpis91  *C2            
  tpis91  C2CL             g 5/02  C2CL2            tpis91  C2CL3          
  g 5/02  C2CL4            g 5/02  C2CL6            tpis91  C2F            
  tpis91  C2FCL            tpis91  C2FCL3           tpis91  C2F2           
  tpis91  C2F2CL2          tpis91  C2F3             tpis91  C2F3CL         
  tpis91  C2F4             g12/99  C2F6             g 6/01  C2H            
  g 5/02  C2HCL            g 5/02  C2HCL3           tpis91  C2HF           
  tpis91  C2HFCL2          tpis91  C2HF2CL          tpis91  C2HF3          
  g 1/91  C2H2,acetylene   g 5/01  C2H2,vinylidene  tpis91  C2H2CL2        
  tpis91  C2H2FCL          tpis91  C2H2F2           g 4/02  CH2CO,ketene   
  g 3/02  O(CH)2O          srd 01  HO(CO)2OH        g 7/01  C2H3,vinyl     
  srd 01  CH2Br-COOH       g 5/02  C2H3CL           srd 01  CH2CL-COOH     
  tpis91  C2H3F            g 9/00  CH3CN            g 6/96  CH3CO,acetyl   
  g 1/00  C2H4             g 8/88  C2H4O,ethylen-o  g 8/88  CH3CHO,ethanal 
  g 6/00  CH3COOH          srd 01  OHCH2COOH        g 7/00  C2H5           
  n 6/79  C2H5Br           g 7/00  C2H6             g 8/88  CH3N2CH3       
  g 8/88  C2H5OH           g 7/00  CH3OCH3          srd 01  CH3O2CH3       
  g 7/00  CCN              tpis91  CNC              srd 01  OCCN           
  tpis79  C2N2             g 8/00  C2O              n 6/01  C2S2           
  tpis79  *C3              n 4/98  C3H3,1-propynl   n 4/98  C3H3,2-propynl 
  g 2/00  C3H4,allene      g 1/00  C3H4,propyne     g 5/90  C3H4,cyclo-    
  g 3/01  C3H5,allyl       g 2/00  C3H6,propylene   g 1/00  C3H6,cyclo-    
  g 6/01  C3H6O,propylox   g 6/97  C3H6O,acetone    g 1/02  C3H6O,propanal 
  g 7/01  C3H7,n-propyl    g 9/85  C3H7,i-propyl    g 2/00  C3H8           
  g 2/00  C3H8O,1propanol  g 2/00  C3H8O,2propanol  srd 01  CNCOCN         
  n 6/01  C3OS             g 7/88  C3O2             n 6/01  C3S2           
  g tpis  *C4              g 7/01  C4H2,butadiyne   g 8/00  C4H4,1,3-cyclo-
  n10/92  C4H6,butadiene   n10/93  C4H6,1butyne     n10/93  C4H6,2butyne   
  g 8/00  C4H6,cyclo-      n 4/88  C4H8,1-butene    n 4/88  C4H8,cis2-buten
  n 4/88  C4H8,tr2-butene  n 4/88  C4H8,isobutene   g 8/00  C4H8,cyclo-    
  g10/00  (CH3COOH)2       n10/84  C4H9,n-butyl     n10/84  C4H9,i-butyl   
  g 1/93  C4H9,s-butyl     g 1/93  C4H9,t-butyl     g12/00  C4H10,n-butane 
  g 8/00  C4H10,isobutane  g 6/01  C4N2             g 8/00  *C5            
  g 5/90  C5H6,1,3cyclo-   g 1/93  C5H8,cyclo-      n 4/87  C5H10,1-pentene
  g 2/01  C5H10,cyclo-     n10/84  C5H11,pentyl     g 1/93  C5H11,t-pentyl 
  n10/85  C5H12,n-pentane  n10/85  C5H12,i-pentane  n10/85  CH3C(CH3)2CH3  
  g 2/93  C6H2             g11/00  C6H5,phenyl      g 8/00  C6H5O,phenoxy  
  g 8/00  C6H6             g 8/00  C6H5OH,phenol    g 1/93  C6H10,cyclo-   
  n 4/87  C6H12,1-hexene   g 6/90  C6H12,cyclo-     n10/83  C6H13,n-hexyl  
  g 6/01  C6H14,n-hexane   g 7/01  C7H7,benzyl      g 1/93  C7H8           
  g12/00  C7H8O,cresol-mx  n 4/87  C7H14,1-heptene  n10/83  C7H15,n-heptyl 
  n10/85  C7H16,n-heptane  n10/85  C7H16,2-methylh  n 4/89  C8H8,styrene   
  n10/86  C8H10,ethylbenz  n 4/87  C8H16,1-octene   n10/83  C8H17,n-octyl  
  n 4/85  C8H18,n-octane   n 4/85  C8H18,isooctane  n10/83  C9H19,n-nonyl  
  g 3/01  C10H8,naphthale  n10/83  C10H21,n-decyl   g 8/00  C12H9,o-bipheny
  g 8/00  C12H10,biphenyl  g 7/97  *CL              g 6/95  CLCN           
  tpis89  CLF              tpis89  CLF3             tpis89  CLF5           
  tpis89  CLO              g 7/93  CLO2             tpis89  CL2            
  tpis89  CL2O             g 5/97  *F               g 5/99  FCN            
  g12/99  FCO              j 9/95  FO               j 9/95  FO2,FOO        
  j 9/95  FO2,OFO          tpis89  F2               g 4/99  F2O            
  j 9/95  F2O2             j 6/76  FS2F             g 6/97  *H             
  tpis89  HBr              g 6/01  HCN              g 1/01  HCO            
  tpis89  HCCN             g 6/01  HCCO             tpis89  HCL            
  tpis89  *HF              g 6/01  HNC              g 7/00  HNCO           
  g10/01  HNO              tpis89  HNO2             g 5/99  HNO3           
  g 1/01  HOCL             tpis89  HOF              g 4/02  HO2            
  tpis89  HOPO             tpis89  HPO              j 6/72  HSO3F          
  tpis78  *H2              g 5/01  HCHO,formaldehy  g 6/01  HCOOH          
  tpis89  H2F2             g 8/89  H2O              g 6/99  H2O2           
  g 4/01  H2S              tpis89  H2SO4            tpis89  H3F3           
  g 6/01  (HCOOH)2         tpis89  H4F4             tpis89  H5F5           
  tpis89  H6F6             tpis89  H7F7             g 5/97  *He            
  g 5/97  *N               g 6/01  NCO              tpis89  NF             
  g 4/99  NF2              g 4/99  NF3              g 4/99  *NH            
  tpis89  NHF              tpis89  NHF2             g 3/01  NH2            
  tpis89  NH2F             tpis89  NH3              tpis89  NH2OH          
  tpis89  *NO              g 4/99  NOCL             g 4/99  NOF            
  tpis89  NOF3             g 4/99  NO2              g 4/99  NO2CL          
  g 4/99  NO2F             j12/64  NO3              tpis89  NO3F           
  tpis78  *N2              g 6/01  NCN              tpis89  N2F2           
  tpis89  N2F4             g 5/99  N2H2             tpis89  NH2NO2         
  g 4/99  N2H4             g 4/99  N2O              g 4/99  N2O3           
  tpis89  N2O4             g 4/99  N2O5             tpis89  N3             
  g 4/99  N3H              g 5/97  *O               g 4/02  *OH            
  tpis89  *O2              g 8/01  O3               g 5/97  *P             
  tpis89  PCL              tpis89  PCL2             tpis89  PCL3           
  tpis89  PCL5             tpis89  PF               tpis89  PFCL           
  tpis89  PFCL2            tpis89  PFCL4            tpis89  PF2            
  tpis89  PF2CL            tpis89  PF2CL3           tpis89  PF3            
  tpis89  PF3CL2           tpis89  PF4CL            tpis89  PF5            
  tpis89  PH               tpis89  PH2              j 6/62  PH3            
  tpis89  PN               tpis89  PO               tpis89  POCL3          
  tpis89  POFCL2           tpis89  POF2CL           tpis89  POF3           
  tpis89  PO2              tpis89  PS               tpis89  P2             
  tpis89  P2O3             tpis89  P2O4             tpis89  P2O5           
  tpis89  P3               tpis89  P3O6             tpis89  P4             
  tpis89  P4O6             tpis89  P4O7             tpis89  P4O8           
  tpis89  P4O9             tpis89  P4O10            g 5/97  *S             
  j 6/78  SCL              j 6/78  SCL2             tpis89  SF             
  tpis89  SF2              tpis89  SF3              tpis89  SF4            
  tpis89  SF5              tpis89  SF6              g10/01  SH             
  tpis89  SN               tpis89  SO               tpis89  SOF2           
  tpis89  SO2              j 6/71  SO2CL2           j 6/71  SO2FCL         
  tpis89  SO2F2            tpis89  SO3              tpis89  S2             
  g12/00  S2CL2            j 6/76  S2F2             tpis89  S2O            
  tpis89  S3               tpis89  S4               tpis89  S5             
  tpis89  S6               tpis89  S7               tpis89  S8             
  g 8/01  Br2(cr)          g 8/01  Br2(L)           g 8/01  Br2(L)         
  n 4/83  C(gr)            n 4/83  C(gr)            n 4/83  C(gr)          
  g11/99  H2O(cr)          g 8/01  H2O(L)           g 8/01  H2O(L)         
  j 9/77  H2SO4(L)         j12/71  H3PO4(cr)        j12/71  H3PO4(L)       
  j 9/65  NH4CL(II)        j 9/65  NH4CL(III)       j 9/65  NH4CL(III)     
  tpis89  NH4F(cr)         tpis89  NH4F(cr)         tpis89  NH4F(L)        
  tpis89  P(cr)            tpis89  P(L)             tpis89  P4O10(cr)      
  tpis89  P4O10(cr)        tpis89  P4O10(L)         tpis89  S(a)           
  tpis89  S(b)             tpis89  S(L)             tpis89  S(L)           
  tpis89  S(L)             tpis89  S(L)             tpis89  S(L)           
  j 6/78  SCL2(L)          j 6/78  S2CL2(L)       

 O/F =   0.000000

                       EFFECTIVE FUEL     EFFECTIVE OXIDANT        MIXTURE
 ENTHALPY                  h(2)/R              h(1)/R               h0/R
 (KG-MOL)(K)/KG        0.00000000E+00      0.00000000E+00      0.00000000E+00

 KG-FORM.WT./KG             bi(2)               bi(1)               b0i
  *H                   0.71759442E+00      0.00000000E+00      0.71759442E+00
  *He                  0.47908600E-01      0.00000000E+00      0.47908600E-01
  *C                   0.18915025E-02      0.00000000E+00      0.18915025E-02
  *N                   0.16111485E-03      0.00000000E+00      0.16111485E-03
  *S                   0.13343432E-03      0.00000000E+00      0.13343432E-03
  *P                   0.14195141E-05      0.00000000E+00      0.14195141E-05
  *O                   0.34778095E-02      0.00000000E+00      0.34778095E-02
  *F                   0.25764180E-07      0.00000000E+00      0.25764180E-07
  *CL                  0.22428322E-06      0.00000000E+00      0.22428322E-06
  *Br                  0.24593081E-09      0.00000000E+00      0.24593081E-09

 POINT ITN      T            H           HE          C           N 
                    S           P           O           F           CL
                    BR
   1   45     300.000      -6.639     -14.726     -28.551     -26.933
                 -25.171     -34.815    -108.559    -137.822     -64.673
                 -50.448
 ADD  H3PO4(cr)      
   1    4     300.000      -6.639     -14.726     -28.551     -26.933
                 -25.171     -74.099    -108.559    -137.818     -64.673
                 -50.448
 ADD  NH4CL(II)      
   1    3     300.000      -6.639     -14.726     -28.551     -26.934
                 -25.171     -74.099    -108.559    -137.818     -84.024
                 -50.448
 ADD  NH4F(cr)       
   1    2     300.000      -6.639     -14.726     -28.551     -26.935
                 -25.171     -74.099    -108.559    -142.612     -84.024
                 -50.448
 ADD  H2O(L)         
   1    4     300.000      -6.636     -14.720     -28.557     -26.937
                 -25.171     -69.422    -109.731    -142.621     -84.033
                 -50.445
 PHASE CHANGE, REPLACE  H3PO4(cr)      WITH  H3PO4(L)       
   2    7     350.000      -6.672     -14.779     -24.224     -24.274
                 -23.999     -61.765     -93.399    -118.463     -68.669
                 -48.403
 REMOVE  H2O(L)         
   2    4     350.000      -6.660     -14.756     -24.247     -24.286
                 -23.999     -56.532     -94.716    -118.498     -68.703
                 -48.391
 REMOVE  NH4F(cr)       
   2    5     350.000      -6.660     -14.756     -24.247     -24.293
                 -23.999     -56.532     -94.716    -122.185     -68.697
                 -48.391
   3    2     400.000      -6.708     -14.824     -20.976     -22.297
                 -23.133     -43.760     -84.345    -110.495     -57.295
                 -46.880
   4    2     450.000      -6.769     -14.911     -18.401     -20.736
                 -22.470     -34.013     -76.286    -101.426     -48.510
                 -45.729
 PHASE CHANGE, REPLACE  NH4CL(II)      WITH  NH4CL(III)     
   5    8     500.000      -6.838     -15.011     -16.320     -18.354
                 -21.949     -26.379     -69.847     -94.191     -42.756
                 -44.829
 REMOVE  NH4CL(III)     
   5    9     500.000      -6.837     -15.009     -16.322     -19.482
                 -21.949     -26.382     -69.847     -94.190     -50.069
                 -44.828
   6    2     550.000      -6.909     -15.112     -14.607     -18.455
                 -21.532     -20.289     -64.585     -88.285     -48.122
                 -44.107
   7    2     600.000      -6.983     -15.216     -13.170     -17.600
                 -21.193     -15.350     -60.205     -83.378     -46.514
                 -43.520
   8   10     650.000      -7.056     -15.321     -11.949     -16.893
                 -20.913     -11.414     -56.476     -79.237     -45.165
                 -43.035
 REMOVE  H3PO4(L)       
   8    5     650.000      -7.056     -15.321     -11.950     -16.893
                 -20.913     -14.315     -56.504     -79.238     -45.165
                 -43.035




               THERMODYNAMIC EQUILIBRIUM PROPERTIES AT ASSIGNED

                           TEMPERATURE AND PRESSURE

 CASE = saturn         

             REACTANT                       MOLES         ENERGY      TEMP
                                                         KJ/KG-MOL      K
 NAME        H2                           1.0000000         0.000      0.000
 NAME        He                           0.1350000         0.000      0.000
 NAME        CH4                          0.0053300         0.000      0.000
 NAME        N2                           0.0002270         0.000      0.000
 NAME        H2S                          0.0003760         0.000      0.000
 NAME        PH3                          0.0000040         0.000      0.000
 NAME        O2                           0.0049000         0.000      0.000
 NAME        HF                           0.0000001         0.000      0.000
 NAME        HCL                          0.0000006         0.000      0.000
 NAME        HBr                          0.0000000         0.000      0.000

 O/F=    0.00000  %FUEL=  0.000000  R,EQ.RATIO=*********  PHI,EQ.RATIO= 0.000000

 THERMODYNAMIC PROPERTIES

 P, BAR            13.210   13.210   13.210   13.210   13.210   13.210   13.210   13.210
 T, K              300.00   350.00   400.00   450.00   500.00   550.00   600.00   650.00
 RHO, KG/CU M    1.3163 0 1.1216 0 9.8138-1 8.7234-1 7.8511-1 7.1373-1 6.5426-1 6.0392-1
 H, KJ/KG        -1077.11  -403.28   168.43   741.68  1315.89  1890.86  2466.80  3044.48
 U, KJ/KG        -2080.67 -1581.08 -1177.63  -772.63  -366.69   40.026   447.71   857.11
 G, KJ/KG        -14743.5 -17078.8 -19500.0 -21993.0 -24549.8 -27164.2 -29831.0 -32545.9
 S, KJ/(KG)(K)    45.5546  47.6443  49.1711  50.5215  51.7314  52.8274  53.8297  54.7545

 M, (1/n)           2.485    2.471    2.471    2.471    2.471    2.471    2.471    2.471
 MW, MOL WT         2.471    2.471    2.471    2.471    2.471    2.471    2.471    2.471
 (dLV/dLP)t      -1.00268 -1.00000 -1.00000 -1.00000 -1.00000 -1.00000 -1.00000 -1.00001
 (dLV/dLT)p        1.0472   1.0000   1.0000   1.0000   1.0000   1.0000   1.0000   1.0001
 Cp, KJ/(KG)(K)   14.2041  11.4103  11.4531  11.4763  11.4911  11.5084  11.5306  11.5617
 GAMMAs            1.3434   1.4183   1.4161   1.4149   1.4141   1.4132   1.4121   1.4107
 SON VEL,M/SEC     1161.1   1292.5   1380.6   1463.8   1542.5   1617.3   1688.6   1756.6

 MOLE FRACTIONS

 *Br             4.290-34 2.103-30 6.376-29 1.985-27 9.740-24 7.556-23 5.688-22 3.978-20
 CH3             0.000  0 8.763-33 1.450-30 2.506-28 8.605-23 1.869-21 3.887-20 2.310-17
 CH3Br           2.179-25 1.453-23 7.898-23 4.368-22 3.031-20 8.491-20 2.351-19 2.017-18
 CH3CL           6.775-33 2.111-26 8.204-24 3.246-21 1.590-18 5.216-18 1.685-17 1.999-16
 CH3F            8.198-32 5.546-27 6.986-26 8.968-25 4.927-22 2.255-21 1.009-20 2.367-19
 CH4             4.6735-3 4.6735-3 4.6735-3 4.6735-3 4.6735-3 4.6735-3 4.6735-3 4.6734-3
 CH3OH           6.349-26 1.536-22 2.194-21 3.201-20 2.421-17 1.200-16 5.815-16 1.618-14
 *CO             2.448-32 1.130-26 1.379-24 1.790-22 3.173-17 6.048-16 1.117-14 5.282-12
 COS             4.559-36 1.162-30 1.129-28 1.174-26 1.226-21 2.084-20 3.456-19 1.320-16
 *CO2            6.994-30 9.923-25 4.751-23 2.415-21 4.295-17 4.759-16 5.175-15 8.141-13
 CH3CN           0.000  0 0.000  0 1.205-36 5.881-34 2.828-27 1.213-25 5.007-24 1.280-20
 C2H4            7.230-36 7.897-31 8.531-29 9.705-27 1.219-21 2.116-20 3.553-19 1.367-16
 C2H6            2.251-17 9.652-16 4.415-15 2.059-14 9.449-13 2.408-12 6.086-12 4.327-11
 C2H5OH          4.877-36 1.234-31 4.603-30 1.788-28 1.570-24 1.434-23 1.279-22 1.305-20
 C3H8            9.100-30 8.675-27 1.401-25 2.355-24 2.642-21 1.481-20 8.197-20 3.076-18
 *H              1.073-36 2.872-31 4.328-29 6.765-27 1.783-21 3.603-20 6.957-19 3.524-16
 HBr             6.076-10 6.076-10 6.076-10 6.076-10 6.076-10 6.076-10 6.076-10 6.076-10
 HCN             0.000  0 4.076-35 1.502-32 5.950-30 1.675-23 6.240-22 2.232-20 4.177-17
 HCL             2.159-15 5.118-11 2.794 -9 1.526 -7 5.542 -7 5.542 -7 5.542 -7 5.541 -7
 *HF             5.204-10 6.374 -8 6.369 -8 6.368 -8 6.366 -8 6.366 -8 6.366 -8 6.366 -8
 HNCO            0.000  0 7.320-37 2.199-34 7.122-32 1.236-25 4.134-24 1.334-22 2.032-19
 HOPO            1.722-34 1.753-27 2.394-24 3.230-21 1.464-13 9.010-12 4.919-10 9.515 -8
 HPO             0.000  0 0.000  0 0.000  0 0.000  0 3.913-28 2.380-25 1.231-22 2.641-18
 *H2             8.6765-1 8.6765-1 8.6765-1 8.6765-1 8.6765-1 8.6765-1 8.6765-1 8.6764-1
 HCHO,formaldehy 2.435-37 1.210-31 1.488-29 1.919-27 3.240-22 5.987-21 1.065-19 4.606-17
 HCOOH           2.080-36 6.708-31 4.380-29 3.008-27 1.095-22 1.419-21 1.793-20 3.841-18
 H2F2            1.233-18 4.840-15 2.836-15 1.661-15 4.464-16 3.273-16 2.417-16 1.286-16
 H2O             2.6591-3 8.5788-3 8.5788-3 8.5788-3 8.5788-3 8.5788-3 8.5789-3 8.5926-3
 H2S             3.2968-4 3.2968-4 3.2968-4 3.2968-4 3.2968-4 3.2968-4 3.2968-4 3.2968-4
 *He             1.1837-1 1.1837-1 1.1837-1 1.1837-1 1.1837-1 1.1837-1 1.1837-1 1.1837-1
 NH2             0.000  0 3.347-36 7.540-34 1.772-31 1.288-25 3.332-24 8.204-23 6.817-20
 NH3             3.9746-4 3.9752-4 3.9752-4 3.9757-4 3.9805-4 3.9799-4 3.9774-4 3.9049-4
 *N2             3.072-15 6.395-13 5.677-12 5.260-11 1.376 -8 5.456 -8 2.145 -7 3.790 -6
 PF3             7.321-37 2.070-28 8.360-27 3.244-25 2.273-21 1.684-20 1.142-19 2.729-19
 PH              0.000  0 0.000  0 0.000  0 0.000  0 5.987-30 6.726-27 6.339-24 4.763-19
 PH2             0.000  0 0.000  0 9.750-35 1.391-30 2.035-20 4.867-18 9.983-16 3.028-12
 PH3             1.305-30 6.986-25 7.234-22 7.210-19 1.456-11 7.103-10 3.041 -8 3.412 -6
 PN              0.000  0 0.000  0 0.000  0 0.000  0 1.794-28 1.790-25 1.513-22 9.035-18
 PO              0.000  0 0.000  0 0.000  0 0.000  0 6.642-29 6.160-26 4.835-23 2.505-18
 POF3            1.406-32 6.298-25 7.660-24 8.937-23 3.273-20 1.206-19 4.133-19 2.383-19
 PS              0.000  0 0.000  0 0.000  0 1.236-37 4.088-26 2.119-23 9.385-21 1.459-16
 P2              0.000  0 0.000  0 0.000  0 0.000  0 3.234-28 5.336-24 6.655-20 4.825-14
 P2O3            0.000  0 0.000  0 0.000  0 0.000  0 1.918-27 8.511-24 2.964-20 1.532-15
 P2O4            0.000  0 0.000  0 0.000  0 0.000  0 1.158-31 4.793-28 1.568-24 7.205-20
 P3O6            0.000  0 0.000  0 0.000  0 0.000  0 4.401-33 1.116-28 2.083-24 1.650-19
 P4              0.000  0 0.000  0 0.000  0 0.000  0 0.000  0 1.033-31 7.479-25 6.282-16
 P4O7            0.000  0 0.000  0 0.000  0 0.000  0 8.150-32 1.027-26 8.751-22 7.213-17
 P4O8            0.000  0 0.000  0 0.000  0 0.000  0 4.302-28 1.965-23 6.201-19 6.411-15
 P4O9            0.000  0 0.000  0 0.000  0 0.000  0 2.167-25 3.895-21 4.934-17 7.585-14
 P4O10           0.000  0 0.000  0 0.000  0 0.000  0 3.831-25 3.542-21 2.343-17 9.312-15
 SH              3.389-30 3.863-26 1.654-24 7.305-23 8.571-19 8.229-18 7.647-17 8.340-15
 S2              3.473-34 6.034-30 3.089-28 1.647-26 3.132-22 3.419-21 3.622-20 5.252-18
 H2O(L)          5.9197-3 0.0000 0 0.0000 0 0.0000 0 0.0000 0 0.0000 0 0.0000 0 0.0000 0
 H3PO4(cr)       3.5073-6 0.0000 0 0.0000 0 0.0000 0 0.0000 0 0.0000 0 0.0000 0 0.0000 0
 H3PO4(L)        0.0000 0 3.5073-6 3.5073-6 3.5073-6 3.5073-6 3.5070-6 3.4957-6 0.0000 0
 NH4CL(II)       5.5415-7 5.5410-7 5.5316-7 5.0211-7 0.0000 0 0.0000 0 0.0000 0 0.0000 0
 NH4F(cr)        6.3137-8 0.0000 0 0.0000 0 0.0000 0 0.0000 0 0.0000 0 0.0000 0 0.0000 0

  * THERMODYNAMIC PROPERTIES FITTED TO 20000.K

    PRODUCTS WHICH WERE CONSIDERED BUT WHOSE MOLE FRACTIONS
    WERE LESS THAN 1.000000E-20 FOR ALL ASSIGNED CONDITIONS

 BrCL            BrF             BrF3            BrF5            BrO            
 OBrO            BrOO            BrO3            Br2             BrBrO          
 BrOBr           *C              CBr             CBr2            CBr3           
 CBr4            CCL             CCLBr3          CCL2            CCL2Br2        
 CCL3            CCL3Br          CCL4            CF              CFBr3          
 CFCL            CFCLBr2         CFCL2           CFCL2Br         CFCL3          
 CF2             CF2Br2          CF2CL           CF2CLBr         CF2CL2         
 CF3             CF3Br           CF3CL           CF4             *CH            
 CHBr3           CHCL            CHCLBr2         CHCL2           CHCL2Br        
 CHCL3           CHF             CHFBr2          CHFCL           CHFCLBr        
 CHFCL2          CHF2            CHF2Br          CHF2CL          CHF3           
 CH2             CH2Br2          CH2CL           CH2CLBr         CH2CL2         
 CH2F            CH2FBr          CH2FCL          CH2F2           CH2OH          
 CH3O            CH3OOH          *CN             CNN             COCL           
 COCL2           COFCL           COF2            COHCL           COHF           
 COOH            CP              CS              CS2             *C2            
 C2CL            C2CL2           C2CL3           C2CL4           C2CL6          
 C2F             C2FCL           C2FCL3          C2F2            C2F2CL2        
 C2F3            C2F3CL          C2F4            C2F6            C2H            
 C2HCL           C2HCL3          C2HF            C2HFCL2         C2HF2CL        
 C2HF3           C2H2,acetylene  C2H2,vinylidene C2H2CL2         C2H2FCL        
 C2H2F2          CH2CO,ketene    O(CH)2O         HO(CO)2OH       C2H3,vinyl     
 CH2Br-COOH      C2H3CL          CH2CL-COOH      C2H3F           CH3CO,acetyl   
 C2H4O,ethylen-o CH3CHO,ethanal  CH3COOH         OHCH2COOH       C2H5           
 C2H5Br          CH3N2CH3        CH3OCH3         CH3O2CH3        CCN            
 CNC             OCCN            C2N2            C2O             C2S2           
 *C3             C3H3,1-propynl  C3H3,2-propynl  C3H4,allene     C3H4,propyne   
 C3H4,cyclo-     C3H5,allyl      C3H6,propylene  C3H6,cyclo-     C3H6O,propylox 
 C3H6O,acetone   C3H6O,propanal  C3H7,n-propyl   C3H7,i-propyl   C3H8O,1propanol
 C3H8O,2propanol CNCOCN          C3OS            C3O2            C3S2           
 *C4             C4H2,butadiyne  C4H4,1,3-cyclo- C4H6,butadiene  C4H6,1butyne   
 C4H6,2butyne    C4H6,cyclo-     C4H8,1-butene   C4H8,cis2-buten C4H8,tr2-butene
 C4H8,isobutene  C4H8,cyclo-     (CH3COOH)2      C4H9,n-butyl    C4H9,i-butyl   
 C4H9,s-butyl    C4H9,t-butyl    C4H10,n-butane  C4H10,isobutane C4N2           
 *C5             C5H6,1,3cyclo-  C5H8,cyclo-     C5H10,1-pentene C5H10,cyclo-   
 C5H11,pentyl    C5H11,t-pentyl  C5H12,n-pentane C5H12,i-pentane CH3C(CH3)2CH3  
 C6H2            C6H5,phenyl     C6H5O,phenoxy   C6H6            C6H5OH,phenol  
 C6H10,cyclo-    C6H12,1-hexene  C6H12,cyclo-    C6H13,n-hexyl   C6H14,n-hexane 
 C7H7,benzyl     C7H8            C7H8O,cresol-mx C7H14,1-heptene C7H15,n-heptyl 
 C7H16,n-heptane C7H16,2-methylh C8H8,styrene    C8H10,ethylbenz C8H16,1-octene 
 C8H17,n-octyl   C8H18,n-octane  C8H18,isooctane C9H19,n-nonyl   C10H8,naphthale
 C10H21,n-decyl  C12H9,o-bipheny C12H10,biphenyl *CL             CLCN           
 CLF             CLF3            CLF5            CLO             CLO2           
 CL2             CL2O            *F              FCN             FCO            
 FO              FO2,FOO         FO2,OFO         F2              F2O            
 F2O2            FS2F            HCO             HCCN            HCCO           
 HNC             HNO             HNO2            HNO3            HOCL           
 HOF             HO2             HSO3F           H2O2            H2SO4          
 H3F3            (HCOOH)2        H4F4            H5F5            H6F6           
 H7F7            *N              NCO             NF              NF2            
 NF3             *NH             NHF             NHF2            NH2F           
 NH2OH           *NO             NOCL            NOF             NOF3           
 NO2             NO2CL           NO2F            NO3             NO3F           
 NCN             N2F2            N2F4            N2H2            NH2NO2         
 N2H4            N2O             N2O3            N2O4            N2O5           
 N3              N3H             *O              *OH             *O2            
 O3              *P              PCL             PCL2            PCL3           
 PCL5            PF              PFCL            PFCL2           PFCL4          
 PF2             PF2CL           PF2CL3          PF3CL2          PF4CL          
 PF5             POCL3           POFCL2          POF2CL          PO2            
 P2O5            P3              P4O6            *S              SCL            
 SCL2            SF              SF2             SF3             SF4            
 SF5             SF6             SN              SO              SOF2           
 SO2             SO2CL2          SO2FCL          SO2F2           SO3            
 S2CL2           S2F2            S2O             S3              S4             
 S5              S6              S7              S8              Br2(cr)        
 Br2(L)          C(gr)           H2O(cr)         H2SO4(L)        NH4CL(III)     
 NH4F(L)         P(cr)           P(L)            P4O10(cr)       P4O10(L)       
 S(a)            S(b)            S(L)            SCL2(L)         S2CL2(L)       






 POINT ITN      T            H           HE          C           N 
                    S           P           O           F           CL
                    BR
   1    4     700.000      -7.129     -15.424     -10.902     -16.327
                 -20.680     -14.405     -53.337     -75.698     -44.018
                 -42.630
   2    4     750.000      -7.200     -15.526      -9.993     -15.919
                 -20.485     -14.493     -50.598     -72.639     -43.033
                 -42.287

 SINGULAR MATRIX, ITERATION  1  VARIABLE 10(EQLBRM)
   3   23     300.000      -6.376     -14.200     -29.077     -27.198
                 -25.171     -68.122    -110.251    -143.402     -84.813
                 -44.011
 PHASE CHANGE, REPLACE  H3PO4(cr)      WITH  H3PO4(L)       
   4    7     350.000      -6.406     -14.247     -24.756     -24.545
                 -23.999     -60.435     -93.932    -119.257     -69.463
                 -46.496
 REMOVE  H2O(L)         
   4    3     350.000      -6.401     -14.237     -24.766     -24.550
                 -23.999     -57.310     -94.716    -119.272     -69.478
                 -48.131
 REMOVE  NH4F(cr)       
   4    4     350.000      -6.401     -14.237     -24.766     -24.552
                 -23.999     -57.310     -94.716    -121.926     -69.476
                 -48.132
   5    2     400.000      -6.448     -14.305     -21.495     -22.557
                 -23.133     -44.539     -84.345    -110.235     -58.074
                 -46.621
   6    2     450.000      -6.509     -14.392     -18.920     -20.996
                 -22.470     -34.791     -76.286    -101.166     -49.289
                 -45.470
 PHASE CHANGE, REPLACE  NH4CL(II)      WITH  NH4CL(III)     
   7    8     500.000      -6.578     -14.491     -16.840     -19.004
                 -21.949     -27.159     -69.847     -93.931     -43.146
                 -44.569
 REMOVE  NH4CL(III)     
   7    8     500.000      -6.578     -14.490     -16.841     -19.742
                 -21.949     -27.161     -69.847     -93.930     -49.808
                 -44.569
   8    2     550.000      -6.650     -14.593     -15.126     -18.714
                 -21.532     -21.068     -64.585     -88.026     -47.863
                 -43.848




               THERMODYNAMIC EQUILIBRIUM PROPERTIES AT ASSIGNED

                           TEMPERATURE AND PRESSURE

 CASE = saturn         

             REACTANT                       MOLES         ENERGY      TEMP
                                                         KJ/KG-MOL      K
 NAME        H2                           1.0000000         0.000      0.000
 NAME        He                           0.1350000         0.000      0.000
 NAME        CH4                          0.0053300         0.000      0.000
 NAME        N2                           0.0002270         0.000      0.000
 NAME        H2S                          0.0003760         0.000      0.000
 NAME        PH3                          0.0000040         0.000      0.000
 NAME        O2                           0.0049000         0.000      0.000
 NAME        HF                           0.0000001         0.000      0.000
 NAME        HCL                          0.0000006         0.000      0.000
 NAME        HBr                          0.0000000         0.000      0.000

 O/F=    0.00000  %FUEL=  0.000000  R,EQ.RATIO=*********  PHI,EQ.RATIO= 0.000000

 THERMODYNAMIC PROPERTIES

 P, BAR            13.210   13.210   22.200   22.200   22.200   22.200   22.200   22.200
 T, K              700.00   750.00   300.00   350.00   400.00   450.00   500.00   550.00
 RHO, KG/CU M    5.6077-1 5.2337-1 2.2145 0 1.8849 0 1.6493 0 1.4660 0 1.3194 0 1.1995 0
 H, KJ/KG         3623.56  4204.93 -1096.29  -403.28   168.43   741.68  1315.89  1890.86
 U, KJ/KG         1267.88  1680.88 -2098.76 -1581.08 -1177.63  -772.63  -366.69   40.025
 G, KJ/KG        -35305.4 -38106.3 -14222.8 -16467.4 -18801.2 -21206.9 -23676.4 -26203.4
 S, KJ/(KG)(K)    55.6127  56.4149  43.7552  45.8974  47.4242  48.7746  49.9845  51.0805

 M, (1/n)           2.471    2.471    2.488    2.471    2.471    2.471    2.471    2.471
 MW, MOL WT         2.471    2.471    2.471    2.471    2.471    2.471    2.471    2.471
 (dLV/dLP)t      -1.00005 -1.00010 -1.00159 -1.00000 -1.00000 -1.00000 -1.00000 -1.00000
 (dLV/dLT)p        1.0004   1.0008   1.0281   1.0000   1.0000   1.0000   1.0000   1.0000
 Cp, KJ/(KG)(K)   11.6031  11.6523  13.0919  11.4103  11.4530  11.4756  11.4911  11.5083
 GAMMAs            1.4089   1.4069   1.3665   1.4183   1.4161   1.4149   1.4141   1.4133
 SON VEL,M/SEC     1821.8   1884.4   1170.4   1292.5   1380.6   1463.8   1542.5   1617.3

 MOLE FRACTIONS

 *Br             2.903-19 1.630-18 1.589-31 1.622-30 4.919-29 1.531-27 7.513-24 5.828-23
 CH3             4.594-16 6.156-15 0.000  0 6.760-33 1.118-30 1.933-28 6.638-23 1.442-21
 CH3Br           5.550-18 1.341-17 1.047-22 1.453-23 7.898-23 4.368-22 3.031-20 8.491-20
 CH3CL           6.393-16 1.758-15 2.394-33 7.474-27 2.905-24 1.149-21 1.592-18 5.218-18
 CH3F            1.037-18 3.744-18 2.896-32 5.544-27 6.984-26 8.967-25 4.927-22 2.255-21
 CH4             4.6733-3 4.6731-3 4.6735-3 4.6735-3 4.6735-3 4.6735-3 4.6735-3 4.6735-3
 CH3OH           7.687-14 2.980-13 3.774-26 1.536-22 2.194-21 3.201-20 2.421-17 1.200-16
 *CO             9.620-11 1.206 -9 5.140-33 4.000-27 4.884-25 6.337-23 1.123-17 2.141-16
 COS             2.199-15 2.568-14 9.573-37 4.113-31 3.999-29 4.156-27 4.340-22 7.380-21
 *CO2            8.958-12 7.298-11 8.731-31 3.513-25 1.682-23 8.552-22 1.521-17 1.685-16
 CS2             4.189-20 7.533-19 0.000  0 0.000  0 2.832-36 6.993-34 6.207-28 1.768-26
 CH3CN           4.979-19 1.119-17 0.000  0 0.000  0 4.266-37 2.082-34 1.001-27 4.296-26
 C2H4            2.249-15 2.577-14 4.297-36 4.699-31 5.077-29 5.774-27 7.253-22 1.259-20
 CH3CHO,ethanal  1.080-19 1.679-18 0.000  0 3.260-37 6.073-35 1.202-32 6.026-27 1.473-25
 CH3COOH         8.688-22 1.078-20 0.000  0 1.288-37 1.389-35 1.596-33 2.123-28 3.821-27
 C2H5            7.848-22 1.869-20 0.000  0 0.000  0 0.000  0 7.524-37 3.908-30 1.648-28
 C2H6            1.095-10 2.464-10 2.251-17 9.652-16 4.415-15 2.059-14 9.449-13 2.408-12
 C2H5OH          1.158-19 7.786-19 2.899-36 1.234-31 4.603-30 1.788-28 1.570-24 1.434-23
 C3H6,propylene  5.394-21 1.075-19 0.000  0 0.000  0 1.443-37 4.511-35 7.085-29 2.299-27
 C3H8            1.719-17 7.755-17 9.100-30 8.675-27 1.401-25 2.355-24 2.642-21 1.482-20
 *CL             4.639-21 5.565-20 0.000  0 0.000  0 7.816-38 6.046-34 1.290-27 2.464-26
 *H              6.482-15 8.114-14 8.272-37 2.215-31 3.339-29 5.218-27 1.376-21 2.779-20
 HBr             6.076-10 6.076-10 2.919 -7 6.076-10 6.076-10 6.076-10 6.076-10 6.076-10
 HCN             1.391-15 2.718-14 0.000  0 1.443-35 5.319-33 2.106-30 5.931-24 2.210-22
 HCL             5.541 -7 5.541 -7 7.627-16 1.812-11 9.894-10 5.402 -8 5.548 -7 5.544 -7
 *HF             6.366 -8 6.365 -8 1.839-10 6.372 -8 6.368 -8 6.367 -8 6.366 -8 6.366 -8
 HNC             6.479-20 2.588-18 0.000  0 0.000  0 0.000  0 0.000  0 3.846-30 3.353-28
 HNCO            6.190-18 1.125-16 0.000  0 2.592-37 7.785-35 2.521-32 4.376-26 1.464-24
 HOPO            1.251 -7 1.604 -7 1.722-34 6.208-28 8.478-25 1.144-21 5.184-14 3.190-12
 HPO             3.082-17 2.604-16 0.000  0 0.000  0 0.000  0 0.000  0 1.385-28 8.428-26
 *H2             8.6765-1 8.6768-1 8.6765-1 8.6765-1 8.6765-1 8.6765-1 8.6765-1 8.6765-1
 HCHO,formaldehy 7.955-16 9.476-15 8.605-38 7.199-32 8.857-30 1.142-27 1.928-22 3.563-21
 HCOOH           4.851-17 4.446-16 4.369-37 3.991-31 2.606-29 1.790-27 6.513-23 8.444-22
 H2F2            9.633-17 7.528-17 2.590-19 8.128-15 4.764-15 2.790-15 7.502-16 5.500-16
 H2O             8.5924-3 8.5919-3 1.5806-3 8.5788-3 8.5788-3 8.5788-3 8.5788-3 8.5788-3
 H2S             3.2968-4 3.2966-4 3.2968-4 3.2968-4 3.2968-4 3.2968-4 3.2968-4 3.2968-4
 *He             1.1837-1 1.1836-1 1.1837-1 1.1837-1 1.1837-1 1.1837-1 1.1837-1 1.1837-1
 NH2             1.513-18 2.053-17 0.000  0 2.582-36 5.817-34 1.367-31 9.939-26 2.570-24
 NH3             3.7078-4 3.2677-4 3.9746-4 3.9752-4 3.9752-4 3.9754-4 3.9807-4 3.9805-4
 *N2             1.364 -5 3.564 -5 1.085-15 2.264-13 2.010-12 1.862-11 4.871 -9 1.932 -8
 *OH             7.367-21 1.881-19 0.000  0 0.000  0 0.000  0 2.477-36 2.197-29 1.037-27
 PF3             4.600-20 9.922-21 1.538-37 1.230-28 4.972-27 1.930-25 1.353-21 1.002-20
 PH              9.906-18 1.375-16 0.000  0 0.000  0 0.000  0 0.000  0 2.120-30 2.381-27
 PH2             1.402-11 5.283-11 0.000  0 0.000  0 4.475-35 6.386-31 9.342-21 2.234-18
 PH3             3.382 -6 3.347 -6 6.212-30 4.157-25 4.304-22 4.290-19 8.667-12 4.226-10
 PN              1.644-16 1.887-15 0.000  0 0.000  0 0.000  0 0.000  0 3.779-29 3.772-26
 PO              4.430-17 5.374-16 0.000  0 0.000  0 0.000  0 0.000  0 1.814-29 1.683-26
 POF3            2.090-20 2.575-21 1.755-33 3.744-25 4.556-24 5.316-23 1.948-20 7.179-20
 PO2             1.526-19 1.668-18 0.000  0 0.000  0 0.000  0 0.000  0 1.251-31 1.004-28
 PS              1.472-15 1.097-14 0.000  0 0.000  0 0.000  0 0.000  0 1.117-26 5.788-24
 P2              3.207-13 1.660-12 0.000  0 0.000  0 0.000  0 0.000  0 4.055-29 6.689-25
 P2O3            3.074-15 5.748-15 0.000  0 0.000  0 0.000  0 0.000  0 2.404-28 1.067-24
 P2O4            1.385-19 2.514-19 0.000  0 0.000  0 0.000  0 0.000  0 1.452-32 6.010-29
 P3              1.029-21 1.161-20 0.000  0 0.000  0 0.000  0 0.000  0 0.000  0 0.000  0
 P3O6            4.736-20 1.698-20 0.000  0 0.000  0 0.000  0 0.000  0 2.532-34 6.423-30
 P4              1.387-15 2.780-15 0.000  0 0.000  0 0.000  0 0.000  0 0.000  0 2.730-33
 P4O7            2.356-18 1.292-19 0.000  0 0.000  0 0.000  0 0.000  0 2.153-33 2.712-28
 P4O8            8.032-17 1.932-18 0.000  0 0.000  0 0.000  0 0.000  0 1.136-29 5.190-25
 P4O9            3.947-16 4.460-18 0.000  0 0.000  0 0.000  0 0.000  0 5.723-27 1.029-22
 P4O10           2.605-17 1.729-19 0.000  0 0.000  0 0.000  0 0.000  0 1.012-26 9.355-23
 SH              7.495-14 5.041-13 2.613-30 2.980-26 1.276-24 5.635-23 6.612-19 6.348-18
 SO2             2.088-21 2.546-20 0.000  0 1.770-37 2.166-35 2.786-33 4.720-28 8.785-27
 S2              5.442-17 4.161-16 2.065-34 3.590-30 1.838-28 9.799-27 1.864-22 2.034-21
 H2O(L)          0.0000 0 0.0000 0 6.9982-3 0.0000 0 0.0000 0 0.0000 0 0.0000 0 0.0000 0
 H3PO4(cr)       0.0000 0 0.0000 0 3.5073-6 0.0000 0 0.0000 0 0.0000 0 0.0000 0 0.0000 0
 H3PO4(L)        0.0000 0 0.0000 0 0.0000 0 3.5073-6 3.5073-6 3.5073-6 3.5073-6 3.5071-6
 NH4CL(II)       0.0000 0 0.0000 0 5.5415-7 5.5413-7 5.5380-7 5.3572-7 0.0000 0 0.0000 0
 NH4F(cr)        0.0000 0 0.0000 0 6.3473-8 0.0000 0 0.0000 0 0.0000 0 0.0000 0 0.0000 0

  * THERMODYNAMIC PROPERTIES FITTED TO 20000.K

    PRODUCTS WHICH WERE CONSIDERED BUT WHOSE MOLE FRACTIONS
    WERE LESS THAN 1.000000E-20 FOR ALL ASSIGNED CONDITIONS

 BrCL            BrF             BrF3            BrF5            BrO            
 OBrO            BrOO            BrO3            Br2             BrBrO          
 BrOBr           *C              CBr             CBr2            CBr3           
 CBr4            CCL             CCLBr3          CCL2            CCL2Br2        
 CCL3            CCL3Br          CCL4            CF              CFBr3          
 CFCL            CFCLBr2         CFCL2           CFCL2Br         CFCL3          
 CF2             CF2Br2          CF2CL           CF2CLBr         CF2CL2         
 CF3             CF3Br           CF3CL           CF4             *CH            
 CHBr3           CHCL            CHCLBr2         CHCL2           CHCL2Br        
 CHCL3           CHF             CHFBr2          CHFCL           CHFCLBr        
 CHFCL2          CHF2            CHF2Br          CHF2CL          CHF3           
 CH2             CH2Br2          CH2CL           CH2CLBr         CH2CL2         
 CH2F            CH2FBr          CH2FCL          CH2F2           CH2OH          
 CH3O            CH3OOH          *CN             CNN             COCL           
 COCL2           COFCL           COF2            COHCL           COHF           
 COOH            CP              CS              *C2             C2CL           
 C2CL2           C2CL3           C2CL4           C2CL6           C2F            
 C2FCL           C2FCL3          C2F2            C2F2CL2         C2F3           
 C2F3CL          C2F4            C2F6            C2H             C2HCL          
 C2HCL3          C2HF            C2HFCL2         C2HF2CL         C2HF3          
 C2H2,acetylene  C2H2,vinylidene C2H2CL2         C2H2FCL         C2H2F2         
 CH2CO,ketene    O(CH)2O         HO(CO)2OH       C2H3,vinyl      CH2Br-COOH     
 C2H3CL          CH2CL-COOH      C2H3F           CH3CO,acetyl    C2H4O,ethylen-o
 OHCH2COOH       C2H5Br          CH3N2CH3        CH3OCH3         CH3O2CH3       
 CCN             CNC             OCCN            C2N2            C2O            
 C2S2            *C3             C3H3,1-propynl  C3H3,2-propynl  C3H4,allene    
 C3H4,propyne    C3H4,cyclo-     C3H5,allyl      C3H6,cyclo-     C3H6O,propylox 
 C3H6O,acetone   C3H6O,propanal  C3H7,n-propyl   C3H7,i-propyl   C3H8O,1propanol
 C3H8O,2propanol CNCOCN          C3OS            C3O2            C3S2           
 *C4             C4H2,butadiyne  C4H4,1,3-cyclo- C4H6,butadiene  C4H6,1butyne   
 C4H6,2butyne    C4H6,cyclo-     C4H8,1-butene   C4H8,cis2-buten C4H8,tr2-butene
 C4H8,isobutene  C4H8,cyclo-     (CH3COOH)2      C4H9,n-butyl    C4H9,i-butyl   
 C4H9,s-butyl    C4H9,t-butyl    C4H10,n-butane  C4H10,isobutane C4N2           
 *C5             C5H6,1,3cyclo-  C5H8,cyclo-     C5H10,1-pentene C5H10,cyclo-   
 C5H11,pentyl    C5H11,t-pentyl  C5H12,n-pentane C5H12,i-pentane CH3C(CH3)2CH3  
 C6H2            C6H5,phenyl     C6H5O,phenoxy   C6H6            C6H5OH,phenol  
 C6H10,cyclo-    C6H12,1-hexene  C6H12,cyclo-    C6H13,n-hexyl   C6H14,n-hexane 
 C7H7,benzyl     C7H8            C7H8O,cresol-mx C7H14,1-heptene C7H15,n-heptyl 
 C7H16,n-heptane C7H16,2-methylh C8H8,styrene    C8H10,ethylbenz C8H16,1-octene 
 C8H17,n-octyl   C8H18,n-octane  C8H18,isooctane C9H19,n-nonyl   C10H8,naphthale
 C10H21,n-decyl  C12H9,o-bipheny C12H10,biphenyl CLCN            CLF            
 CLF3            CLF5            CLO             CLO2            CL2            
 CL2O            *F              FCN             FCO             FO             
 FO2,FOO         FO2,OFO         F2              F2O             F2O2           
 FS2F            HCO             HCCN            HCCO            HNO            
 HNO2            HNO3            HOCL            HOF             HO2            
 HSO3F           H2O2            H2SO4           H3F3            (HCOOH)2       
 H4F4            H5F5            H6F6            H7F7            *N             
 NCO             NF              NF2             NF3             *NH            
 NHF             NHF2            NH2F            NH2OH           *NO            
 NOCL            NOF             NOF3            NO2             NO2CL          
 NO2F            NO3             NO3F            NCN             N2F2           
 N2F4            N2H2            NH2NO2          N2H4            N2O            
 N2O3            N2O4            N2O5            N3              N3H            
 *O              *O2             O3              *P              PCL            
 PCL2            PCL3            PCL5            PF              PFCL           
 PFCL2           PFCL4           PF2             PF2CL           PF2CL3         
 PF3CL2          PF4CL           PF5             POCL3           POFCL2         
 POF2CL          P2O5            P4O6            *S              SCL            
 SCL2            SF              SF2             SF3             SF4            
 SF5             SF6             SN              SO              SOF2           
 SO2CL2          SO2FCL          SO2F2           SO3             S2CL2          
 S2F2            S2O             S3              S4              S5             
 S6              S7              S8              Br2(cr)         Br2(L)         
 C(gr)           H2O(cr)         H2SO4(L)        NH4CL(III)      NH4F(L)        
 P(cr)           P(L)            P4O10(cr)       P4O10(L)        S(a)           
 S(b)            S(L)            SCL2(L)         S2CL2(L)       






 POINT ITN      T            H           HE          C           N 
                    S           P           O           F           CL
                    BR
   1    2     600.000      -6.723     -14.697     -13.689     -17.858
                 -21.193     -16.129     -60.205     -83.119     -46.255
                 -43.261
   2    2     650.000      -6.797     -14.802     -12.469     -17.136
                 -20.913     -12.077     -56.505     -78.978     -44.905
                 -42.776
   3   12     700.000      -6.871     -14.906     -11.415     -16.538
                 -20.678      -9.616     -53.113     -75.437     -43.757
                 -42.369
 REMOVE  H3PO4(L)       
   3    7     700.000      -6.869     -14.905     -11.421     -16.542
                 -20.680     -14.650     -53.337     -75.438     -43.758
                 -42.370
   4    4     750.000      -6.941     -15.007     -10.512     -16.064
                 -20.485     -14.733     -50.598     -72.379     -42.773
                 -42.028

 SINGULAR MATRIX, ITERATION  1  VARIABLE 10(EQLBRM)
   5   23     300.000      -6.150     -13.747     -29.530     -27.424
                 -25.171     -66.990    -110.704    -144.081     -85.492
                 -43.444
 PHASE CHANGE, REPLACE  H3PO4(cr)      WITH  H3PO4(L)       
   6    7     350.000      -6.176     -13.788     -25.215     -24.776
                 -23.999     -59.287     -94.391    -119.944     -70.150
                 -45.964
 REMOVE  H2O(L)         
   6    3     350.000      -6.175     -13.785     -25.218     -24.777
                 -23.999     -57.989     -94.716    -119.949     -70.155
                 -47.903
 REMOVE  NH4F(cr)       
   6    3     350.000      -6.175     -13.785     -25.218     -24.778
                 -23.999     -57.989     -94.716    -121.700     -70.154
                 -47.906
   7    2     400.000      -6.222     -13.853     -21.947     -22.783
                 -23.133     -45.217     -84.345    -110.009     -58.752
                 -46.395
   8    2     450.000      -6.283     -13.940     -19.373     -21.222
                 -22.470     -35.469     -76.286    -100.940     -49.967
                 -45.244




               THERMODYNAMIC EQUILIBRIUM PROPERTIES AT ASSIGNED

                           TEMPERATURE AND PRESSURE

 CASE = saturn         

             REACTANT                       MOLES         ENERGY      TEMP
                                                         KJ/KG-MOL      K
 NAME        H2                           1.0000000         0.000      0.000
 NAME        He                           0.1350000         0.000      0.000
 NAME        CH4                          0.0053300         0.000      0.000
 NAME        N2                           0.0002270         0.000      0.000
 NAME        H2S                          0.0003760         0.000      0.000
 NAME        PH3                          0.0000040         0.000      0.000
 NAME        O2                           0.0049000         0.000      0.000
 NAME        HF                           0.0000001         0.000      0.000
 NAME        HCL                          0.0000006         0.000      0.000
 NAME        HBr                          0.0000000         0.000      0.000

 O/F=    0.00000  %FUEL=  0.000000  R,EQ.RATIO=*********  PHI,EQ.RATIO= 0.000000

 THERMODYNAMIC PROPERTIES

 P, BAR            22.200   22.200   22.200   22.200   34.890   34.890   34.890   34.890
 T, K              600.00   650.00   700.00   750.00   300.00   350.00   400.00   450.00
 RHO, KG/CU M    1.0995 0 1.0149 0 9.4242-1 8.7957-1 3.4824 0 2.9623 0 2.5920 0 2.3040 0
 H, KJ/KG         2466.79  3043.99  3623.20  4204.08 -1106.52  -403.28   168.43   741.68
 U, KJ/KG          447.70   856.64  1267.56  1680.13 -2108.41 -1581.08 -1177.63  -772.63
 G, KJ/KG        -28782.9 -31410.4 -34082.5 -36796.0 -13769.8 -15934.9 -18192.7 -20522.2
 S, KJ/(KG)(K)    52.0828  53.0068  53.8653  54.6668  42.2108  44.3760  45.9028  47.2531

 M, (1/n)           2.471    2.471    2.471    2.471    2.490    2.471    2.471    2.471
 MW, MOL WT         2.471    2.471    2.471    2.471    2.471    2.471    2.471    2.471
 (dLV/dLP)t      -1.00000 -1.00000 -1.00002 -1.00005 -1.00101 -1.00000 -1.00000 -1.00000
 (dLV/dLT)p        1.0000   1.0001   1.0002   1.0005   1.0179   1.0000   1.0000   1.0000
 Cp, KJ/(KG)(K)   11.5303  11.5639  11.5955  11.6411  12.4995  11.4103  11.4530  11.4753
 GAMMAs            1.4121   1.4105   1.4090   1.4071   1.3808   1.4183   1.4161   1.4149
 SON VEL,M/SEC     1688.6   1756.5   1821.9   1884.5   1176.2   1292.5   1380.6   1463.8

 MOLE FRACTIONS

 *Br             4.387-22 3.416-21 2.239-19 1.258-18 1.780-31 1.294-30 3.923-29 1.221-27
 CH3             2.998-20 6.563-19 3.544-16 4.749-15 0.000  0 5.392-33 8.920-31 1.542-28
 CH3Br           2.351-19 6.640-19 5.551-18 1.341-17 1.471-22 1.453-23 7.898-23 4.368-22
 CH3CL           1.686-17 5.568-17 6.393-16 1.759-15 9.680-34 3.026-27 1.176-24 4.653-22
 CH3F            1.009-20 4.635-20 1.038-18 3.745-18 1.171-32 5.545-27 6.985-26 8.967-25
 CH4             4.6735-3 4.6735-3 4.6734-3 4.6733-3 4.6735-3 4.6735-3 4.6735-3 4.6735-3
 CH3OH           5.815-16 2.898-15 7.688-14 2.980-13 2.400-26 1.536-22 2.194-21 3.201-20
 *CO             3.953-15 7.745-14 3.407-11 4.270-10 1.322-33 1.619-27 1.977-25 2.566-23
 COS             1.224-19 2.162-18 7.788-16 9.095-15 2.462-37 1.665-31 1.619-29 1.682-27
 *CO2            1.832-15 2.107-14 3.172-12 2.585-11 1.428-31 1.422-25 6.811-24 3.462-22
 CS2             4.872-25 1.442-23 1.483-20 2.668-19 0.000  0 0.000  0 1.147-36 2.831-34
 CH3CN           1.774-24 7.920-23 1.843-19 4.441-18 0.000  0 0.000  0 1.727-37 8.428-35
 C2H4            2.114-19 3.750-18 1.339-15 1.534-14 2.733-36 2.990-31 3.230-29 3.674-27
 CH3CHO,ethanal  3.476-24 8.747-23 6.428-20 9.990-19 0.000  0 2.074-37 3.864-35 7.651-33
 C2H5            6.608-27 2.831-25 6.054-22 1.442-20 0.000  0 0.000  0 0.000  0 6.001-37
 C2H6            6.086-12 1.570-11 1.095-10 2.465-10 2.251-17 9.652-16 4.415-15 2.059-14
 C2H5OH          1.279-22 1.194-21 1.158-19 7.788-19 1.843-36 1.234-31 4.603-30 1.788-28
 C3H6,propylene  7.191-26 2.416-24 3.210-21 6.400-20 0.000  0 0.000  0 9.179-38 2.870-35
 C3H8            8.197-20 4.723-19 1.720-17 7.756-17 9.100-30 8.675-27 1.401-25 2.355-24
 *CL             4.509-25 8.660-24 3.578-21 4.293-20 0.000  0 0.000  0 0.000  0 1.953-34
 *H              5.366-19 1.087-17 5.000-15 6.259-14 6.596-37 1.767-31 2.663-29 4.162-27
 HBr             6.076-10 6.076-10 6.076-10 6.076-10 4.101 -7 6.076-10 6.076-10 6.076-10
 HCN             7.906-21 3.036-19 5.148-16 1.079-14 0.000  0 5.844-36 2.154-33 8.527-31
 HCL             5.543 -7 5.542 -7 5.541 -7 5.541 -7 3.084-16 7.337-12 4.006-10 2.187 -8
 *HF             6.366 -8 6.366 -8 6.366 -8 6.366 -8 7.435-11 6.373 -8 6.369 -8 6.368 -8
 HNC             2.772-26 2.494-24 2.398-20 1.027-18 0.000  0 0.000  0 0.000  0 0.000  0
 HNCO            4.726-23 1.642-21 2.291-18 4.465-17 0.000  0 1.049-37 3.152-35 1.021-32
 HOPO            1.742-10 9.510 -9 7.552 -8 9.725 -8 1.722-34 2.513-28 3.433-25 4.630-22
 HPO             4.357-23 2.316-20 1.861-17 1.579-16 0.000  0 0.000  0 0.000  0 0.000  0
 *H2             8.6765-1 8.6764-1 8.6764-1 8.6765-1 8.6765-1 8.6765-1 8.6765-1 8.6765-1
 HCHO,formaldehy 6.338-20 1.189-18 4.734-16 5.640-15 0.000  0 4.580-32 5.635-30 7.266-28
 HCOOH           1.067-20 1.425-19 2.887-17 2.646-16 1.124-37 2.540-31 1.658-29 1.139-27
 H2F2            4.062-16 2.994-16 1.619-16 1.265-16 6.661-20 1.278-14 7.488-15 4.385-15
 H2O             8.5788-3 8.5800-3 8.5926-3 8.5924-3 1.0051-3 8.5788-3 8.5788-3 8.5788-3
 H2S             3.2968-4 3.2968-4 3.2968-4 3.2967-4 3.2968-4 3.2968-4 3.2968-4 3.2968-4
 *He             1.1837-1 1.1837-1 1.1837-1 1.1837-1 1.1837-1 1.1837-1 1.1837-1 1.1837-1
 NH2             6.332-23 1.643-21 1.220-18 1.776-17 0.000  0 2.060-36 4.640-34 1.090-31
 NH3             3.9796-4 3.9760-4 3.8752-4 3.6634-4 3.9746-4 3.9752-4 3.9752-4 3.9753-4
 *N2             7.604 -8 3.094 -7 5.277 -6 1.586 -5 4.389-16 9.167-14 8.139-13 7.539-12
 *OH             4.616-26 2.187-24 5.683-21 1.451-19 0.000  0 0.000  0 0.000  0 1.975-36
 PF3             6.794-20 4.447-19 4.668-20 1.011-20 0.000  0 7.833-29 3.164-27 1.228-25
 PH              2.244-24 2.187-21 5.981-18 8.338-17 0.000  0 0.000  0 0.000  0 0.000  0
 PH2             4.583-16 9.471-14 1.097-11 4.152-11 0.000  0 0.000  0 2.271-35 3.241-31
 PH3             1.809 -8 7.604 -7 3.432 -6 3.410 -6 2.416-29 2.645-25 2.739-22 2.729-19
 PN              3.189-23 2.803-20 6.172-17 7.632-16 0.000  0 0.000  0 0.000  0 0.000  0
 PO              1.320-23 1.075-20 2.063-17 2.514-16 0.000  0 0.000  0 0.000  0 0.000  0
 POF3            2.460-19 8.093-19 2.121-20 2.624-21 2.870-34 2.383-25 2.899-24 3.383-23
 PO2             6.852-26 4.858-23 7.110-20 7.802-19 0.000  0 0.000  0 0.000  0 0.000  0
 PS              2.563-21 1.167-18 6.855-16 5.131-15 0.000  0 0.000  0 0.000  0 0.000  0
 P2              8.343-21 1.044-16 1.169-13 6.102-13 0.000  0 0.000  0 0.000  0 0.000  0
 P2O3            3.715-21 1.296-17 1.121-15 2.114-15 0.000  0 0.000  0 0.000  0 0.000  0
 P2O4            1.966-25 6.472-22 5.052-20 9.247-20 0.000  0 0.000  0 0.000  0 0.000  0
 P3O6            1.199-25 2.203-21 1.352-20 4.909-21 0.000  0 0.000  0 0.000  0 0.000  0
 P4              1.976-26 1.379-19 3.097-16 6.313-16 0.000  0 0.000  0 0.000  0 0.000  0
 P4O7            2.312-23 1.859-18 5.263-19 2.936-20 0.000  0 0.000  0 0.000  0 0.000  0
 P4O8            1.638-20 4.829-16 1.795-17 4.391-19 0.000  0 0.000  0 0.000  0 0.000  0
 P4O9            1.303-18 1.529-14 8.819-17 1.014-18 0.000  0 0.000  0 0.000  0 0.000  0
 P4O10           6.190-19 3.775-15 5.820-18 3.931-20 0.000  0 0.000  0 0.000  0 0.000  0
 SH              5.899-17 5.692-16 5.782-14 3.889-13 2.084-30 2.377-26 1.018-24 4.495-23
 SO2             1.579-25 3.005-24 1.243-21 1.516-20 0.000  0 1.126-37 1.378-35 1.773-33
 S2              2.155-20 2.386-19 3.239-17 2.476-16 1.313-34 2.285-30 1.170-28 6.235-27
 H2O(L)          0.0000 0 0.0000 0 0.0000 0 0.0000 0 7.5737-3 0.0000 0 0.0000 0 0.0000 0
 H3PO4(cr)       0.0000 0 0.0000 0 0.0000 0 0.0000 0 3.5073-6 0.0000 0 0.0000 0 0.0000 0
 H3PO4(L)        3.5004-6 3.2178-6 0.0000 0 0.0000 0 0.0000 0 3.5073-6 3.5073-6 3.5073-6
 NH4CL(II)       0.0000 0 0.0000 0 0.0000 0 0.0000 0 5.5415-7 5.5414-7 5.5401-7 5.4669-7
 NH4F(cr)        0.0000 0 0.0000 0 0.0000 0 0.0000 0 6.3583-8 0.0000 0 0.0000 0 0.0000 0

  * THERMODYNAMIC PROPERTIES FITTED TO 20000.K

    PRODUCTS WHICH WERE CONSIDERED BUT WHOSE MOLE FRACTIONS
    WERE LESS THAN 1.000000E-20 FOR ALL ASSIGNED CONDITIONS

 BrCL            BrF             BrF3            BrF5            BrO            
 OBrO            BrOO            BrO3            Br2             BrBrO          
 BrOBr           *C              CBr             CBr2            CBr3           
 CBr4            CCL             CCLBr3          CCL2            CCL2Br2        
 CCL3            CCL3Br          CCL4            CF              CFBr3          
 CFCL            CFCLBr2         CFCL2           CFCL2Br         CFCL3          
 CF2             CF2Br2          CF2CL           CF2CLBr         CF2CL2         
 CF3             CF3Br           CF3CL           CF4             *CH            
 CHBr3           CHCL            CHCLBr2         CHCL2           CHCL2Br        
 CHCL3           CHF             CHFBr2          CHFCL           CHFCLBr        
 CHFCL2          CHF2            CHF2Br          CHF2CL          CHF3           
 CH2             CH2Br2          CH2CL           CH2CLBr         CH2CL2         
 CH2F            CH2FBr          CH2FCL          CH2F2           CH2OH          
 CH3O            CH3OOH          *CN             CNN             COCL           
 COCL2           COFCL           COF2            COHCL           COHF           
 COOH            CP              CS              *C2             C2CL           
 C2CL2           C2CL3           C2CL4           C2CL6           C2F            
 C2FCL           C2FCL3          C2F2            C2F2CL2         C2F3           
 C2F3CL          C2F4            C2F6            C2H             C2HCL          
 C2HCL3          C2HF            C2HFCL2         C2HF2CL         C2HF3          
 C2H2,acetylene  C2H2,vinylidene C2H2CL2         C2H2FCL         C2H2F2         
 CH2CO,ketene    O(CH)2O         HO(CO)2OH       C2H3,vinyl      CH2Br-COOH     
 C2H3CL          CH2CL-COOH      C2H3F           CH3CO,acetyl    C2H4O,ethylen-o
 CH3COOH         OHCH2COOH       C2H5Br          CH3N2CH3        CH3OCH3        
 CH3O2CH3        CCN             CNC             OCCN            C2N2           
 C2O             C2S2            *C3             C3H3,1-propynl  C3H3,2-propynl 
 C3H4,allene     C3H4,propyne    C3H4,cyclo-     C3H5,allyl      C3H6,cyclo-    
 C3H6O,propylox  C3H6O,acetone   C3H6O,propanal  C3H7,n-propyl   C3H7,i-propyl  
 C3H8O,1propanol C3H8O,2propanol CNCOCN          C3OS            C3O2           
 C3S2            *C4             C4H2,butadiyne  C4H4,1,3-cyclo- C4H6,butadiene 
 C4H6,1butyne    C4H6,2butyne    C4H6,cyclo-     C4H8,1-butene   C4H8,cis2-buten
 C4H8,tr2-butene C4H8,isobutene  C4H8,cyclo-     (CH3COOH)2      C4H9,n-butyl   
 C4H9,i-butyl    C4H9,s-butyl    C4H9,t-butyl    C4H10,n-butane  C4H10,isobutane
 C4N2            *C5             C5H6,1,3cyclo-  C5H8,cyclo-     C5H10,1-pentene
 C5H10,cyclo-    C5H11,pentyl    C5H11,t-pentyl  C5H12,n-pentane C5H12,i-pentane
 CH3C(CH3)2CH3   C6H2            C6H5,phenyl     C6H5O,phenoxy   C6H6           
 C6H5OH,phenol   C6H10,cyclo-    C6H12,1-hexene  C6H12,cyclo-    C6H13,n-hexyl  
 C6H14,n-hexane  C7H7,benzyl     C7H8            C7H8O,cresol-mx C7H14,1-heptene
 C7H15,n-heptyl  C7H16,n-heptane C7H16,2-methylh C8H8,styrene    C8H10,ethylbenz
 C8H16,1-octene  C8H17,n-octyl   C8H18,n-octane  C8H18,isooctane C9H19,n-nonyl  
 C10H8,naphthale C10H21,n-decyl  C12H9,o-bipheny C12H10,biphenyl CLCN           
 CLF             CLF3            CLF5            CLO             CLO2           
 CL2             CL2O            *F              FCN             FCO            
 FO              FO2,FOO         FO2,OFO         F2              F2O            
 F2O2            FS2F            HCO             HCCN            HCCO           
 HNO             HNO2            HNO3            HOCL            HOF            
 HO2             HSO3F           H2O2            H2SO4           H3F3           
 (HCOOH)2        H4F4            H5F5            H6F6            H7F7           
 *N              NCO             NF              NF2             NF3            
 *NH             NHF             NHF2            NH2F            NH2OH          
 *NO             NOCL            NOF             NOF3            NO2            
 NO2CL           NO2F            NO3             NO3F            NCN            
 N2F2            N2F4            N2H2            NH2NO2          N2H4           
 N2O             N2O3            N2O4            N2O5            N3             
 N3H             *O              *O2             O3              *P             
 PCL             PCL2            PCL3            PCL5            PF             
 PFCL            PFCL2           PFCL4           PF2             PF2CL          
 PF2CL3          PF3CL2          PF4CL           PF5             POCL3          
 POFCL2          POF2CL          P2O5            P3              P4O6           
 *S              SCL             SCL2            SF              SF2            
 SF3             SF4             SF5             SF6             SN             
 SO              SOF2            SO2CL2          SO2FCL          SO2F2          
 SO3             S2CL2           S2F2            S2O             S3             
 S4              S5              S6              S7              S8             
 Br2(cr)         Br2(L)          C(gr)           H2O(cr)         H2SO4(L)       
 NH4CL(III)      NH4F(L)         P(cr)           P(L)            P4O10(cr)      
 P4O10(L)        S(a)            S(b)            S(L)            SCL2(L)        
 S2CL2(L)       





 PHASE CHANGE, REPLACE  NH4CL(II)      WITH  NH4CL(III)     

 POINT ITN      T            H           HE          C           N 
                    S           P           O           F           CL
                    BR
   1    7     500.000      -6.352     -14.038     -17.293     -19.509
                 -21.949     -27.838     -69.847     -93.704     -43.546
                 -44.343
 REMOVE  NH4CL(III)     
   1    8     500.000      -6.352     -14.038     -17.293     -19.968
                 -21.949     -27.839     -69.847     -93.704     -49.583
                 -44.343
   2    2     550.000      -6.424     -14.140     -15.579     -18.940
                 -21.532     -21.746     -64.585     -87.800     -47.637
                 -43.622
   3    2     600.000      -6.497     -14.245     -14.142     -18.084
                 -21.193     -16.807     -60.205     -82.893     -46.028
                 -43.035
   4    2     650.000      -6.570     -14.350     -12.921     -17.361
                 -20.913     -12.755     -56.505     -78.752     -44.679
                 -42.550
   5   10     700.000      -6.644     -14.453     -11.869     -16.749
                 -20.678     -10.101     -53.162     -75.212     -43.532
                 -42.144
 REMOVE  H3PO4(L)       
   5    7     700.000      -6.643     -14.453     -11.873     -16.752
                 -20.680     -14.869     -53.337     -75.212     -43.532
                 -42.144
   6    4     750.000      -6.715     -14.554     -10.964     -16.243
                 -20.485     -14.949     -50.598     -72.153     -42.547
                 -41.802

 SINGULAR MATRIX, ITERATION  1  VARIABLE 10(EQLBRM)
   7   23     300.000      -5.950     -13.347     -29.930     -27.624
                 -25.171     -65.991    -111.103    -144.680     -86.092
                 -43.085
 PHASE CHANGE, REPLACE  H3PO4(cr)      WITH  H3PO4(L)       
   8    7     350.000      -5.975     -13.385     -25.618     -24.978
                 -23.999     -58.279     -94.794    -120.549     -70.754
                 -45.732
 REMOVE  NH4F(cr)       
   8    4     350.000      -5.975     -13.385     -25.618     -24.978
                 -23.999     -58.279     -94.794    -121.501     -70.754
                 -47.706




               THERMODYNAMIC EQUILIBRIUM PROPERTIES AT ASSIGNED

                           TEMPERATURE AND PRESSURE

 CASE = saturn         

             REACTANT                       MOLES         ENERGY      TEMP
                                                         KJ/KG-MOL      K
 NAME        H2                           1.0000000         0.000      0.000
 NAME        He                           0.1350000         0.000      0.000
 NAME        CH4                          0.0053300         0.000      0.000
 NAME        N2                           0.0002270         0.000      0.000
 NAME        H2S                          0.0003760         0.000      0.000
 NAME        PH3                          0.0000040         0.000      0.000
 NAME        O2                           0.0049000         0.000      0.000
 NAME        HF                           0.0000001         0.000      0.000
 NAME        HCL                          0.0000006         0.000      0.000
 NAME        HBr                          0.0000000         0.000      0.000

 O/F=    0.00000  %FUEL=  0.000000  R,EQ.RATIO=*********  PHI,EQ.RATIO= 0.000000

 THERMODYNAMIC PROPERTIES

 P, BAR            34.890   34.890   34.890   34.890   34.890   34.890   52.020   52.020
 T, K              500.00   550.00   600.00   650.00   700.00   750.00   300.00   350.00
 RHO, KG/CU M    2.0736 0 1.8851 0 1.7280 0 1.5951 0 1.4811 0 1.3824 0 5.1939 0 4.4195 0
 H, KJ/KG         1315.89  1890.85  2466.79  3043.97  3623.07  4203.70 -1112.41  -414.11
 U, KJ/KG         -366.69   40.024   447.70   856.63  1267.45  1679.79 -2113.97 -1591.16
 G, KJ/KG        -22915.7 -25366.6 -27870.0 -30421.5 -33017.5 -35654.9 -13369.6 -15464.5
 S, KJ/(KG)(K)    48.4631  49.5591  50.5613  51.4854  52.3437  53.1448  40.8574  43.0010

 M, (1/n)           2.471    2.471    2.471    2.471    2.471    2.471    2.490    2.472
 MW, MOL WT         2.471    2.471    2.471    2.471    2.471    2.471    2.471    2.471
 (dLV/dLP)t      -1.00000 -1.00000 -1.00000 -1.00000 -1.00001 -1.00003 -1.00068 -1.00801
 (dLV/dLT)p        1.0000   1.0000   1.0000   1.0000   1.0001   1.0002   1.0120   1.1152
 Cp, KJ/(KG)(K)   11.4911  11.5083  11.5301  11.5619  11.5923  11.6342  12.1588  16.9894
 GAMMAs            1.4141   1.4133   1.4121   1.4106   1.4091   1.4072   1.3899   1.3126
 SON VEL,M/SEC     1542.5   1617.3   1688.6   1756.5   1821.9   1884.6   1179.9   1243.0

 MOLE FRACTIONS

 *Br             5.993-24 4.934-23 3.716-22 2.895-21 1.786-19 1.003-18 1.710-31 1.059-30
 CH3             5.295-23 1.258-21 2.617-20 5.735-19 2.827-16 3.788-15 0.000  0 4.414-33
 CH3Br           3.031-20 8.749-20 2.423-19 6.847-19 5.551-18 1.341-17 1.726-22 1.453-23
 CH3CL           1.590-18 5.399-18 1.745-17 5.767-17 6.394-16 1.759-15 4.352-34 1.359-27
 CH3F            4.927-22 2.356-21 1.055-20 4.848-20 1.038-18 3.745-18 5.265-33 5.539-27
 CH4             4.6735-3 4.6735-3 4.6735-3 4.6735-3 4.6734-3 4.6734-3 4.6735-3 4.6735-3
 CH3OH           2.421-17 1.257-16 6.094-16 3.038-15 7.688-14 2.980-13 1.609-26 1.422-22
 *CO             4.548-18 9.445-17 1.745-15 3.423-14 1.379-11 1.729-10 3.984-34 6.733-28
 COS             1.757-22 3.244-21 5.384-20 9.523-19 3.153-16 3.683-15 7.420-38 6.924-32
 *CO2            6.157-18 7.316-17 7.961-16 9.167-15 1.284-12 1.047-11 2.885-32 5.473-26
 CS2             2.513-28 7.889-27 2.176-25 6.449-24 6.005-21 1.080-19 0.000  0 0.000  0
 CH3CN           4.054-28 1.940-26 8.021-25 3.588-23 7.579-20 1.885-18 0.000  0 0.000  0
 C2H4            4.615-22 8.706-21 1.463-19 2.597-18 8.517-16 9.759-15 1.832-36 2.004-31
 CH3CHO,ethanal  3.834-27 1.028-25 2.429-24 6.121-23 4.090-20 6.357-19 0.000  0 1.287-37
 C2H5            3.117-30 1.465-28 5.882-27 2.523-25 4.829-22 1.150-20 0.000  0 0.000  0
 C2H6            9.449-13 2.475-12 6.255-12 1.614-11 1.095-10 2.465-10 2.251-17 9.652-16
 C2H5OH          1.570-24 1.529-23 1.364-22 1.275-21 1.159-19 7.788-19 1.236-36 1.142-31
 C3H6,propylene  4.508-29 1.618-27 5.067-26 1.705-24 2.042-21 4.072-20 0.000  0 0.000  0
 C3H8            2.642-21 1.558-20 8.623-20 4.973-19 1.720-17 7.757-17 9.100-30 8.675-27
 *CL             1.027-27 2.140-26 3.920-25 7.538-24 2.854-21 3.425-20 0.000  0 0.000  0
 *H              1.097-21 2.419-20 4.674-19 9.481-18 3.989-15 4.993-14 5.401-37 1.447-31
 HBr             6.076-10 6.076-10 6.076-10 6.076-10 6.076-10 6.076-10 4.812 -7 6.076-10
 HCN             2.401-24 9.939-23 3.560-21 1.370-19 2.117-16 4.579-15 0.000  0 2.625-36
 HCL             5.542 -7 5.542 -7 5.542 -7 5.542 -7 5.541 -7 5.541 -7 1.386-16 3.296-12
 *HF             6.366 -8 6.366 -8 6.366 -8 6.366 -8 6.366 -8 6.366 -8 3.342-11 6.366 -8
 HNC             1.557-30 1.546-28 1.280-26 1.154-24 9.861-21 4.360-19 0.000  0 0.000  0
 HNCO            1.772-26 6.563-25 2.121-23 7.384-22 9.423-19 1.895-17 0.000  0 4.363-38
 HOPO            2.099-14 1.456-12 7.949-11 4.340 -9 4.843 -8 6.251 -8 1.722-34 1.318-28
 HPO             5.609-29 4.111-26 2.126-23 1.131-20 1.194-17 1.015-16 0.000  0 0.000  0
 *H2             8.6765-1 8.6765-1 8.6764-1 8.6764-1 8.6763-1 8.6764-1 8.6765-1 8.6765-1
 HCHO,formaldehy 1.227-22 2.467-21 4.393-20 8.249-19 3.012-16 3.589-15 0.000  0 2.841-32
 HCOOH           4.144-23 5.788-22 7.320-21 9.784-20 1.837-17 1.684-16 0.000  0 1.458-31
 H2F2            1.179-15 8.566-16 6.326-16 4.663-16 2.544-16 1.989-16 2.008-20 1.902-14
 H2O             8.5788-3 8.5788-3 8.5788-3 8.5796-3 8.5927-3 8.5926-3 6.7391-4 7.9393-3
 H2S             3.2968-4 3.2968-4 3.2968-4 3.2968-4 3.2968-4 3.2968-4 3.2968-4 3.2968-4
 *He             1.1837-1 1.1837-1 1.1837-1 1.1837-1 1.1837-1 1.1837-1 1.1837-1 1.1837-1
 NH2             7.928-26 2.254-24 5.556-23 1.444-21 9.884-19 1.485-17 0.000  0 1.686-36
 NH3             3.9807-4 3.9806-4 3.9803-4 3.9788-4 3.9367-4 3.8396-4 3.9746-4 3.9752-4
 *N2             1.972 -9 8.144 -9 3.207 -8 1.307 -7 2.205 -6 7.054 -6 1.973-16 4.118-14
 *OH             1.753-29 9.248-28 4.122-26 1.955-24 4.534-21 1.157-19 0.000  0 0.000  0
 PF3             8.607-22 6.759-21 4.580-20 2.996-19 4.705-20 1.022-20 0.000  0 7.134-29
 PH              8.582-31 1.182-27 1.115-24 1.087-21 3.836-18 5.359-17 0.000  0 0.000  0
 PH2             4.741-21 1.330-18 2.727-16 5.638-14 8.823-12 3.346-11 0.000  0 0.000  0
 PH3             5.514-12 3.011-10 1.289 -8 5.414 -7 3.459 -6 3.445 -6 8.014-29 2.417-25
 PN              9.736-30 1.188-26 1.005-23 8.845-21 2.558-17 3.272-16 0.000  0 0.000  0
 PO              5.859-30 6.627-27 5.204-24 4.238-21 1.056-17 1.289-16 0.000  0 0.000  0
 POF3            1.239-20 4.744-20 1.625-19 5.341-19 2.138-20 2.651-21 5.800-35 2.009-25
 PO2             4.041-32 3.937-29 2.689-26 1.908-23 3.637-20 4.001-19 0.000  0 0.000  0
 PS              3.606-27 2.242-24 9.930-22 4.523-19 3.507-16 2.631-15 0.000  0 0.000  0
 P2              6.646-30 1.454-25 1.813-21 2.270-17 4.808-14 2.521-13 0.000  0 0.000  0
 P2O3            3.941-29 2.232-25 7.773-22 2.711-18 4.610-16 8.734-16 0.000  0 0.000  0
 P2O4            2.379-33 1.255-29 4.104-26 1.352-22 2.078-20 3.821-20 0.000  0 0.000  0
 P4              0.000  0 1.851-34 1.339-27 9.342-21 8.233-17 1.694-16 0.000  0 0.000  0
 P4O7            9.090-35 1.611-29 1.372-24 1.102-19 1.399-19 7.879-21 0.000  0 0.000  0
 P4O8            4.798-31 2.993-26 9.438-22 2.779-17 4.771-18 1.178-19 0.000  0 0.000  0
 P4O9            2.416-28 5.774-24 7.308-20 8.561-16 2.345-17 2.721-19 0.000  0 0.000  0
 P4O10           4.273-28 5.151-24 3.404-20 2.073-16 1.547-18 1.055-20 0.000  0 0.000  0
 SH              5.274-19 5.407-18 5.028-17 4.855-16 4.612-14 3.102-13 1.706-30 1.946-26
 S2              1.186-22 1.387-21 1.471-20 1.630-19 2.061-17 1.576-16 8.803-35 1.531-30
 H2O(L)          0.0000 0 0.0000 0 0.0000 0 0.0000 0 0.0000 0 0.0000 0 7.9049-3 6.3949-4
 H3PO4(cr)       0.0000 0 0.0000 0 0.0000 0 0.0000 0 0.0000 0 0.0000 0 3.5073-6 0.0000 0
 H3PO4(L)        3.5073-6 3.5072-6 3.5024-6 3.3017-6 0.0000 0 0.0000 0 0.0000 0 3.5073-6
 NH4CL(II)       0.0000 0 0.0000 0 0.0000 0 0.0000 0 0.0000 0 0.0000 0 5.5415-7 5.5415-7
 NH4F(cr)        0.0000 0 0.0000 0 0.0000 0 0.0000 0 0.0000 0 0.0000 0 6.3624-8 0.0000 0

  * THERMODYNAMIC PROPERTIES FITTED TO 20000.K

    PRODUCTS WHICH WERE CONSIDERED BUT WHOSE MOLE FRACTIONS
    WERE LESS THAN 1.000000E-20 FOR ALL ASSIGNED CONDITIONS

 BrCL            BrF             BrF3            BrF5            BrO            
 OBrO            BrOO            BrO3            Br2             BrBrO          
 BrOBr           *C              CBr             CBr2            CBr3           
 CBr4            CCL             CCLBr3          CCL2            CCL2Br2        
 CCL3            CCL3Br          CCL4            CF              CFBr3          
 CFCL            CFCLBr2         CFCL2           CFCL2Br         CFCL3          
 CF2             CF2Br2          CF2CL           CF2CLBr         CF2CL2         
 CF3             CF3Br           CF3CL           CF4             *CH            
 CHBr3           CHCL            CHCLBr2         CHCL2           CHCL2Br        
 CHCL3           CHF             CHFBr2          CHFCL           CHFCLBr        
 CHFCL2          CHF2            CHF2Br          CHF2CL          CHF3           
 CH2             CH2Br2          CH2CL           CH2CLBr         CH2CL2         
 CH2F            CH2FBr          CH2FCL          CH2F2           CH2OH          
 CH3O            CH3OOH          *CN             CNN             COCL           
 COCL2           COFCL           COF2            COHCL           COHF           
 COOH            CP              CS              *C2             C2CL           
 C2CL2           C2CL3           C2CL4           C2CL6           C2F            
 C2FCL           C2FCL3          C2F2            C2F2CL2         C2F3           
 C2F3CL          C2F4            C2F6            C2H             C2HCL          
 C2HCL3          C2HF            C2HFCL2         C2HF2CL         C2HF3          
 C2H2,acetylene  C2H2,vinylidene C2H2CL2         C2H2FCL         C2H2F2         
 CH2CO,ketene    O(CH)2O         HO(CO)2OH       C2H3,vinyl      CH2Br-COOH     
 C2H3CL          CH2CL-COOH      C2H3F           CH3CO,acetyl    C2H4O,ethylen-o
 CH3COOH         OHCH2COOH       C2H5Br          CH3N2CH3        CH3OCH3        
 CH3O2CH3        CCN             CNC             OCCN            C2N2           
 C2O             C2S2            *C3             C3H3,1-propynl  C3H3,2-propynl 
 C3H4,allene     C3H4,propyne    C3H4,cyclo-     C3H5,allyl      C3H6,cyclo-    
 C3H6O,propylox  C3H6O,acetone   C3H6O,propanal  C3H7,n-propyl   C3H7,i-propyl  
 C3H8O,1propanol C3H8O,2propanol CNCOCN          C3OS            C3O2           
 C3S2            *C4             C4H2,butadiyne  C4H4,1,3-cyclo- C4H6,butadiene 
 C4H6,1butyne    C4H6,2butyne    C4H6,cyclo-     C4H8,1-butene   C4H8,cis2-buten
 C4H8,tr2-butene C4H8,isobutene  C4H8,cyclo-     (CH3COOH)2      C4H9,n-butyl   
 C4H9,i-butyl    C4H9,s-butyl    C4H9,t-butyl    C4H10,n-butane  C4H10,isobutane
 C4N2            *C5             C5H6,1,3cyclo-  C5H8,cyclo-     C5H10,1-pentene
 C5H10,cyclo-    C5H11,pentyl    C5H11,t-pentyl  C5H12,n-pentane C5H12,i-pentane
 CH3C(CH3)2CH3   C6H2            C6H5,phenyl     C6H5O,phenoxy   C6H6           
 C6H5OH,phenol   C6H10,cyclo-    C6H12,1-hexene  C6H12,cyclo-    C6H13,n-hexyl  
 C6H14,n-hexane  C7H7,benzyl     C7H8            C7H8O,cresol-mx C7H14,1-heptene
 C7H15,n-heptyl  C7H16,n-heptane C7H16,2-methylh C8H8,styrene    C8H10,ethylbenz
 C8H16,1-octene  C8H17,n-octyl   C8H18,n-octane  C8H18,isooctane C9H19,n-nonyl  
 C10H8,naphthale C10H21,n-decyl  C12H9,o-bipheny C12H10,biphenyl CLCN           
 CLF             CLF3            CLF5            CLO             CLO2           
 CL2             CL2O            *F              FCN             FCO            
 FO              FO2,FOO         FO2,OFO         F2              F2O            
 F2O2            FS2F            HCO             HCCN            HCCO           
 HNO             HNO2            HNO3            HOCL            HOF            
 HO2             HSO3F           H2O2            H2SO4           H3F3           
 (HCOOH)2        H4F4            H5F5            H6F6            H7F7           
 *N              NCO             NF              NF2             NF3            
 *NH             NHF             NHF2            NH2F            NH2OH          
 *NO             NOCL            NOF             NOF3            NO2            
 NO2CL           NO2F            NO3             NO3F            NCN            
 N2F2            N2F4            N2H2            NH2NO2          N2H4           
 N2O             N2O3            N2O4            N2O5            N3             
 N3H             *O              *O2             O3              *P             
 PCL             PCL2            PCL3            PCL5            PF             
 PFCL            PFCL2           PFCL4           PF2             PF2CL          
 PF2CL3          PF3CL2          PF4CL           PF5             POCL3          
 POFCL2          POF2CL          P2O5            P3              P3O6           
 P4O6            *S              SCL             SCL2            SF             
 SF2             SF3             SF4             SF5             SF6            
 SN              SO              SOF2            SO2             SO2CL2         
 SO2FCL          SO2F2           SO3             S2CL2           S2F2           
 S2O             S3              S4              S5              S6             
 S7              S8              Br2(cr)         Br2(L)          C(gr)          
 H2O(cr)         H2SO4(L)        NH4CL(III)      NH4F(L)         P(cr)          
 P(L)            P4O10(cr)       P4O10(L)        S(a)            S(b)           
 S(L)            SCL2(L)         S2CL2(L)       






 POINT ITN      T            H           HE          C           N 
                    S           P           O           F           CL
                    BR
   1    6     400.000      -6.041     -13.492     -22.308     -22.963
                 -23.133     -52.623     -82.628    -109.829     -59.294
                 -46.214
 REMOVE  H2O(L)         
   1    6     400.000      -6.022     -13.453     -22.346     -22.982
                 -23.133     -45.816     -84.345    -109.810     -59.351
                 -46.195
   2    2     450.000      -6.083     -13.541     -19.772     -21.421
                 -22.470     -36.069     -76.286    -100.740     -50.566
                 -45.044
[...]
 HCOOH           2.739-18 2.511-17 0.000  0 7.735-34 6.564-29 3.442-26 4.880-24 6.816-23
 H2F2            1.707-15 1.334-15 1.085-22 6.786-16 4.013-14 1.846-14 1.001-14 7.275-15
 H2O             8.5928-3 8.5928-3 1.1825-4 1.3847-3 8.0588-3 8.5788-3 8.5788-3 8.5788-3
 H2S             3.2968-4 3.2968-4 3.2968-4 3.2968-4 3.2968-4 3.2968-4 3.2968-4 3.2968-4
 *He             1.1837-1 1.1837-1 1.1837-1 1.1837-1 1.1837-1 1.1837-1 1.1837-1 1.1837-1
 NH2             3.858-19 5.939-18 0.000  0 7.041-37 1.784-32 4.821-29 2.720-26 7.734-25
 NH3             3.9798-4 3.9774-4 3.9746-4 3.9746-4 3.9752-4 3.9758-4 3.9808-4 3.9808-4
 *N2             5.010 -8 1.683 -7 6.074-18 1.252-15 7.553-14 1.939-12 2.734-11 1.129-10
 *OH             1.751-21 4.469-20 0.000  0 0.000  0 2.651-37 3.304-33 6.014-30 3.174-28
 PF3             4.761-20 1.037-20 0.000  0 6.600-30 1.208-26 1.756-24 1.013-22 7.959-22
 PH              5.787-19 8.114-18 0.000  0 0.000  0 0.000  0 0.000  0 1.190-32 1.640-29
 PH2             3.448-12 1.312-11 0.000  0 9.234-38 4.962-33 3.688-27 1.916-22 5.372-20
 PH3             3.500 -6 3.498 -6 1.483-26 4.555-23 1.751-20 2.757-16 6.493-13 3.545-11
 PN              5.818-19 7.651-18 0.000  0 0.000  0 0.000  0 0.000  0 1.590-32 1.939-29
 PO              6.150-19 7.536-18 0.000  0 0.000  0 0.000  0 0.000  0 2.788-32 3.153-29
 POF3            2.163-20 2.692-21 5.498-38 3.241-27 3.655-24 9.998-23 1.459-21 5.586-21
 PO2             2.119-21 2.339-20 0.000  0 0.000  0 0.000  0 0.000  0 1.923-34 1.873-31
 PS              2.043-17 1.538-16 0.000  0 0.000  0 0.000  0 7.498-35 1.716-29 1.067-26
 P2              1.095-15 5.779-15 0.000  0 0.000  0 0.000  0 0.000  0 1.278-33 2.795-29
 P2O3            1.049-17 2.002-17 0.000  0 0.000  0 0.000  0 0.000  0 7.577-33 4.292-29
 P4              2.861-19 5.970-19 0.000  0 0.000  0 0.000  0 0.000  0 0.000  0 0.000  0
 P4O8            1.658-20 4.154-22 0.000  0 0.000  0 0.000  0 0.000  0 1.506-37 9.395-33
 P4O9            8.150-20 9.592-22 0.000  0 0.000  0 0.000  0 0.000  0 7.585-35 1.813-30
 SH              1.781-14 1.198-13 7.147-31 8.128-27 9.207-24 2.220-21 1.810-19 1.856-18
 S2              3.073-18 2.349-17 1.545-35 2.671-31 4.244-28 1.352-25 1.396-23 1.634-22
 H2O(L)          0.0000 0 0.0000 0 8.4606-3 7.1941-3 5.1999-4 0.0000 0 0.0000 0 0.0000 0
 H3PO4(cr)       0.0000 0 0.0000 0 3.5073-6 0.0000 0 0.0000 0 0.0000 0 0.0000 0 0.0000 0
 H3PO4(L)        0.0000 0 0.0000 0 0.0000 0 3.5073-6 3.5073-6 3.5073-6 3.5073-6 3.5073-6
 NH4CL(II)       0.0000 0 0.0000 0 5.5415-7 5.5415-7 5.5397-7 4.9653-7 0.0000 0 0.0000 0
 NH4F(cr)        0.0000 0 0.0000 0 6.3656-8 5.8636-8 0.0000 0 0.0000 0 0.0000 0 0.0000 0

  * THERMODYNAMIC PROPERTIES FITTED TO 20000.K

    PRODUCTS WHICH WERE CONSIDERED BUT WHOSE MOLE FRACTIONS
    WERE LESS THAN 1.000000E-20 FOR ALL ASSIGNED CONDITIONS

 BrCL            BrF             BrF3            BrF5            BrO            
 OBrO            BrOO            BrO3            Br2             BrBrO          
 BrOBr           *C              CBr             CBr2            CBr3           
 CBr4            CCL             CCLBr3          CCL2            CCL2Br2        
 CCL3            CCL3Br          CCL4            CF              CFBr3          
 CFCL            CFCLBr2         CFCL2           CFCL2Br         CFCL3          
 CF2             CF2Br2          CF2CL           CF2CLBr         CF2CL2         
 CF3             CF3Br           CF3CL           CF4             *CH            
 CHBr3           CHCL            CHCLBr2         CHCL2           CHCL2Br        
 CHCL3           CHF             CHFBr2          CHFCL           CHFCLBr        
 CHFCL2          CHF2            CHF2Br          CHF2CL          CHF3           
 CH2             CH2Br2          CH2CL           CH2CLBr         CH2CL2         
 CH2F            CH2FBr          CH2FCL          CH2F2           CH2OH          
 CH3O            CH3OOH          *CN             CNN             COCL           
 COCL2           COFCL           COF2            COHCL           COHF           
 COOH            CP              CS              CS2             *C2            
 C2CL            C2CL2           C2CL3           C2CL4           C2CL6          
 C2F             C2FCL           C2FCL3          C2F2            C2F2CL2        
 C2F3            C2F3CL          C2F4            C2F6            C2H            
 C2HCL           C2HCL3          C2HF            C2HFCL2         C2HF2CL        
 C2HF3           C2H2,acetylene  C2H2,vinylidene C2H2CL2         C2H2FCL        
 C2H2F2          CH2CO,ketene    O(CH)2O         HO(CO)2OH       C2H3,vinyl     
 CH2Br-COOH      C2H3CL          CH2CL-COOH      C2H3F           CH3CO,acetyl   
 C2H4O,ethylen-o CH3COOH         OHCH2COOH       C2H5            C2H5Br         
 CH3N2CH3        CH3OCH3         CH3O2CH3        CCN             CNC            
 OCCN            C2N2            C2O             C2S2            *C3            
 C3H3,1-propynl  C3H3,2-propynl  C3H4,allene     C3H4,propyne    C3H4,cyclo-    
 C3H5,allyl      C3H6,propylene  C3H6,cyclo-     C3H6O,propylox  C3H6O,acetone  
 C3H6O,propanal  C3H7,n-propyl   C3H7,i-propyl   C3H8O,1propanol C3H8O,2propanol
 CNCOCN          C3OS            C3O2            C3S2            *C4            
 C4H2,butadiyne  C4H4,1,3-cyclo- C4H6,butadiene  C4H6,1butyne    C4H6,2butyne   
 C4H6,cyclo-     C4H8,1-butene   C4H8,cis2-buten C4H8,tr2-butene C4H8,isobutene 
 C4H8,cyclo-     (CH3COOH)2      C4H9,n-butyl    C4H9,i-butyl    C4H9,s-butyl   
 C4H9,t-butyl    C4H10,n-butane  C4H10,isobutane C4N2            *C5            
 C5H6,1,3cyclo-  C5H8,cyclo-     C5H10,1-pentene C5H10,cyclo-    C5H11,pentyl   
 C5H11,t-pentyl  C5H12,n-pentane C5H12,i-pentane CH3C(CH3)2CH3   C6H2           
 C6H5,phenyl     C6H5O,phenoxy   C6H6            C6H5OH,phenol   C6H10,cyclo-   
 C6H12,1-hexene  C6H12,cyclo-    C6H13,n-hexyl   C6H14,n-hexane  C7H7,benzyl    
 C7H8            C7H8O,cresol-mx C7H14,1-heptene C7H15,n-heptyl  C7H16,n-heptane
 C7H16,2-methylh C8H8,styrene    C8H10,ethylbenz C8H16,1-octene  C8H17,n-octyl  
 C8H18,n-octane  C8H18,isooctane C9H19,n-nonyl   C10H8,naphthale C10H21,n-decyl 
 C12H9,o-bipheny C12H10,biphenyl CLCN            CLF             CLF3           
 CLF5            CLO             CLO2            CL2             CL2O           
 *F              FCN             FCO             FO              FO2,FOO        
 FO2,OFO         F2              F2O             F2O2            FS2F           
 HCO             HCCN            HCCO            HNO             HNO2           
 HNO3            HOCL            HOF             HO2             HSO3F          
 H2O2            H2SO4           H3F3            (HCOOH)2        H4F4           
 H5F5            H6F6            H7F7            *N              NCO            
 NF              NF2             NF3             *NH             NHF            
 NHF2            NH2F            NH2OH           *NO             NOCL           
 NOF             NOF3            NO2             NO2CL           NO2F           
 NO3             NO3F            NCN             N2F2            N2F4           
 N2H2            NH2NO2          N2H4            N2O             N2O3           
 N2O4            N2O5            N3              N3H             *O             
 *O2             O3              *P              PCL             PCL2           
 PCL3            PCL5            PF              PFCL            PFCL2          
 PFCL4           PF2             PF2CL           PF2CL3          PF3CL2         
 PF4CL           PF5             POCL3           POFCL2          POF2CL         
 P2O4            P2O5            P3              P3O6            P4O6           
 P4O7            P4O10           *S              SCL             SCL2           
 SF              SF2             SF3             SF4             SF5            
 SF6             SN              SO              SOF2            SO2            
 SO2CL2          SO2FCL          SO2F2           SO3             S2CL2          
 S2F2            S2O             S3              S4              S5             
 S6              S7              S8              Br2(cr)         Br2(L)         
 C(gr)           H2O(cr)         H2SO4(L)        NH4CL(III)      NH4F(L)        
 P(cr)           P(L)            P4O10(cr)       P4O10(L)        S(a)           
 S(b)            S(L)            SCL2(L)         S2CL2(L)       






 POINT ITN      T            H           HE          C           N 
                    S           P           O           F           CL
                    BR
   1    2     600.000      -5.427     -12.106     -16.281     -19.153
                 -21.193     -20.016     -60.205     -81.823     -44.959
                 -41.965
   2    2     650.000      -5.501     -12.210     -15.060     -18.429
                 -20.913     -15.963     -56.505     -77.682     -43.609
                 -41.480
   3    7     700.000      -5.574     -12.314     -14.011     -17.810
                 -20.680     -12.759     -53.300     -74.143     -42.463
                 -41.074
 REMOVE  H3PO4(L)       
   3    5     700.000      -5.574     -12.314     -14.012     -17.811
                 -20.680     -15.926     -53.337     -74.143     -42.463
                 -41.075
   4    2     750.000      -5.645     -12.415     -13.103     -17.277
                 -20.485     -16.003     -50.597     -71.083     -41.478
                 -40.732




               THERMODYNAMIC EQUILIBRIUM PROPERTIES AT ASSIGNED

                           TEMPERATURE AND PRESSURE

 CASE = saturn         

             REACTANT                       MOLES         ENERGY      TEMP
                                                         KJ/KG-MOL      K
 NAME        H2                           1.0000000         0.000      0.000
 NAME        He                           0.1350000         0.000      0.000
 NAME        CH4                          0.0053300         0.000      0.000
 NAME        N2                           0.0002270         0.000      0.000
 NAME        H2S                          0.0003760         0.000      0.000
 NAME        PH3                          0.0000040         0.000      0.000
 NAME        O2                           0.0049000         0.000      0.000
 NAME        HF                           0.0000001         0.000      0.000
 NAME        HCL                          0.0000006         0.000      0.000
 NAME        HBr                          0.0000000         0.000      0.000

 O/F=    0.00000  %FUEL=  0.000000  R,EQ.RATIO=*********  PHI,EQ.RATIO= 0.000000

 THERMODYNAMIC PROPERTIES

 P, BAR            296.30   296.30   296.30   296.30
 T, K              600.00   650.00   700.00   750.00
 RHO, KG/CU M    1.4675 1 1.3546 1 1.2578 1 1.1740 1
 H, KJ/KG         2466.79  3043.95  3622.97  4203.40
 U, KJ/KG          447.70   856.60  1267.36  1679.53
 G, KJ/KG        -23550.8 -25742.4 -27978.4 -30255.9
 S, KJ/(KG)(K)    43.3627  44.2867  45.1449  45.9458

 M, (1/n)           2.471    2.471    2.471    2.471
 MW, MOL WT         2.471    2.471    2.471    2.471
 (dLV/dLP)t      -1.00000 -1.00000 -1.00000 -1.00000
 (dLV/dLT)p        1.0000   1.0000   1.0000   1.0000
 Cp, KJ/(KG)(K)   11.5300  11.5580  11.5899  11.6278
 GAMMAs            1.4122   1.4107   1.4092   1.4073
 SON VEL,M/SEC     1688.6   1756.6   1821.9   1884.6

 MOLE FRACTIONS

 *Br             1.453-22 1.133-21 6.130-20 3.442-19
 CH3             1.093-20 2.400-19 9.700-17 1.300-15
 CH3Br           2.588-19 7.319-19 5.551-18 1.341-17
 CH3CL           1.883-17 6.227-17 6.394-16 1.759-15
 CH3F            1.163-20 5.347-20 1.038-18 3.745-18
 CH4             4.6735-3 4.6735-3 4.6735-3 4.6735-3
 CH3OH           6.750-16 3.368-15 7.688-14 2.981-13
 *CO             2.923-17 5.744-16 1.912-13 2.398-12
 COS             8.957-22 1.587-20 4.372-18 5.107-17
 *CO2            1.289-17 1.486-16 1.781-14 1.451-13
 CH3CN           1.416-26 6.352-25 1.063-21 2.708-20
 C2H4            2.068-20 3.679-19 1.003-16 1.149-15
 CH3CHO,ethanal  3.511-25 8.864-24 4.816-21 7.487-20
 C2H6            6.643-12 1.715-11 1.095-10 2.465-10
 C2H5OH          1.573-22 1.472-21 1.159-19 7.789-19
 C3H8            9.635-20 5.563-19 1.720-17 7.757-17
 *CL             1.624-25 3.128-24 9.795-22 1.175-20
 *H              1.943-19 3.948-18 1.369-15 1.713-14
 HBr             6.076-10 6.076-10 6.076-10 6.076-10
 HCN             6.225-23 2.402-21 2.968-18 6.580-17
 HCL             5.5415-7 5.5415-7 5.5415-7 5.5415-7
 *HF             6.3657-8 6.3657-8 6.3657-8 6.3657-8
 HNCO            3.685-25 1.286-23 1.321-20 2.723-19
 HOPO            1.428-12 7.799-11 5.774 -9 7.479 -9
 HPO             4.420-25 2.353-22 1.423-18 1.214-17
 *H2             8.6764-1 8.6764-1 8.6763-1 8.6763-1
 HCHO,formaldehy 6.234-21 1.173-19 3.547-17 4.226-16
 HCOOH           1.016-21 1.360-20 2.163-18 1.983-17
 H2F2            5.268-15 3.883-15 2.161-15 1.689-15
 H2O             8.5788-3 8.5789-3 8.5928-3 8.5928-3
 H2S             3.2968-4 3.2968-4 3.2968-4 3.2968-4
 *He             1.1837-1 1.1837-1 1.1837-1 1.1837-1
 NH2             2.347-23 6.111-22 3.429-19 5.279-18
 NH3             3.9808-4 3.9807-4 3.9801-4 3.9787-4
 *N2             4.861-10 1.985 -9 3.125 -8 1.050 -7
 *OH             1.809-26 8.598-25 1.556-21 3.971-20
 PF3             6.105-21 3.990-20 4.763-20 1.038-20
 PH              2.410-26 2.353-23 4.573-19 6.412-18
 PH2             1.556-17 3.218-15 3.065-12 1.167-11
 PH3             1.9356-9 8.1289-8 3.5017-6 3.4998-6
 PN              2.540-26 2.240-23 3.631-19 4.776-18
 PO              3.814-26 3.110-23 4.318-19 5.292-18
 POF3            2.072-20 6.804-20 2.164-20 2.694-21
 PO2             1.953-28 1.387-25 1.488-21 1.643-20
 PS              7.014-24 3.198-21 1.435-17 1.080-16
 P2              6.426-25 8.047-21 6.833-16 3.609-15
 P2O3            2.536-25 8.845-22 6.552-18 1.250-17
 P4              1.170-33 8.160-27 1.412-19 2.947-19
 P4O9            4.232-26 4.946-22 4.022-20 4.736-22
 SH              1.994-17 1.927-16 1.583-14 1.065-13
 S2              2.018-21 2.240-20 2.427-18 1.855-17
 H3PO4(L)        3.5066-6 3.4765-6 0.0000 0 0.0000 0

  * THERMODYNAMIC PROPERTIES FITTED TO 20000.K

    PRODUCTS WHICH WERE CONSIDERED BUT WHOSE MOLE FRACTIONS
    WERE LESS THAN 1.000000E-20 FOR ALL ASSIGNED CONDITIONS

 BrCL            BrF             BrF3            BrF5            BrO            
 OBrO            BrOO            BrO3            Br2             BrBrO          
 BrOBr           *C              CBr             CBr2            CBr3           
 CBr4            CCL             CCLBr3          CCL2            CCL2Br2        
 CCL3            CCL3Br          CCL4            CF              CFBr3          
 CFCL            CFCLBr2         CFCL2           CFCL2Br         CFCL3          
 CF2             CF2Br2          CF2CL           CF2CLBr         CF2CL2         
 CF3             CF3Br           CF3CL           CF4             *CH            
 CHBr3           CHCL            CHCLBr2         CHCL2           CHCL2Br        
 CHCL3           CHF             CHFBr2          CHFCL           CHFCLBr        
 CHFCL2          CHF2            CHF2Br          CHF2CL          CHF3           
 CH2             CH2Br2          CH2CL           CH2CLBr         CH2CL2         
 CH2F            CH2FBr          CH2FCL          CH2F2           CH2OH          
 CH3O            CH3OOH          *CN             CNN             COCL           
 COCL2           COFCL           COF2            COHCL           COHF           
 COOH            CP              CS              CS2             *C2            
 C2CL            C2CL2           C2CL3           C2CL4           C2CL6          
 C2F             C2FCL           C2FCL3          C2F2            C2F2CL2        
 C2F3            C2F3CL          C2F4            C2F6            C2H            
 C2HCL           C2HCL3          C2HF            C2HFCL2         C2HF2CL        
 C2HF3           C2H2,acetylene  C2H2,vinylidene C2H2CL2         C2H2FCL        
 C2H2F2          CH2CO,ketene    O(CH)2O         HO(CO)2OH       C2H3,vinyl     
 CH2Br-COOH      C2H3CL          CH2CL-COOH      C2H3F           CH3CO,acetyl   
 C2H4O,ethylen-o CH3COOH         OHCH2COOH       C2H5            C2H5Br         
 CH3N2CH3        CH3OCH3         CH3O2CH3        CCN             CNC            
 OCCN            C2N2            C2O             C2S2            *C3            
 C3H3,1-propynl  C3H3,2-propynl  C3H4,allene     C3H4,propyne    C3H4,cyclo-    
 C3H5,allyl      C3H6,propylene  C3H6,cyclo-     C3H6O,propylox  C3H6O,acetone  
 C3H6O,propanal  C3H7,n-propyl   C3H7,i-propyl   C3H8O,1propanol C3H8O,2propanol
 CNCOCN          C3OS            C3O2            C3S2            *C4            
 C4H2,butadiyne  C4H4,1,3-cyclo- C4H6,butadiene  C4H6,1butyne    C4H6,2butyne   
 C4H6,cyclo-     C4H8,1-butene   C4H8,cis2-buten C4H8,tr2-butene C4H8,isobutene 
 C4H8,cyclo-     (CH3COOH)2      C4H9,n-butyl    C4H9,i-butyl    C4H9,s-butyl   
 C4H9,t-butyl    C4H10,n-butane  C4H10,isobutane C4N2            *C5            
 C5H6,1,3cyclo-  C5H8,cyclo-     C5H10,1-pentene C5H10,cyclo-    C5H11,pentyl   
 C5H11,t-pentyl  C5H12,n-pentane C5H12,i-pentane CH3C(CH3)2CH3   C6H2           
 C6H5,phenyl     C6H5O,phenoxy   C6H6            C6H5OH,phenol   C6H10,cyclo-   
 C6H12,1-hexene  C6H12,cyclo-    C6H13,n-hexyl   C6H14,n-hexane  C7H7,benzyl    
 C7H8            C7H8O,cresol-mx C7H14,1-heptene C7H15,n-heptyl  C7H16,n-heptane
 C7H16,2-methylh C8H8,styrene    C8H10,ethylbenz C8H16,1-octene  C8H17,n-octyl  
 C8H18,n-octane  C8H18,isooctane C9H19,n-nonyl   C10H8,naphthale C10H21,n-decyl 
 C12H9,o-bipheny C12H10,biphenyl CLCN            CLF             CLF3           
 CLF5            CLO             CLO2            CL2             CL2O           
 *F              FCN             FCO             FO              FO2,FOO        
 FO2,OFO         F2              F2O             F2O2            FS2F           
 HCO             HCCN            HCCO            HNC             HNO            
 HNO2            HNO3            HOCL            HOF             HO2            
 HSO3F           H2O2            H2SO4           H3F3            (HCOOH)2       
 H4F4            H5F5            H6F6            H7F7            *N             
 NCO             NF              NF2             NF3             *NH            
 NHF             NHF2            NH2F            NH2OH           *NO            
 NOCL            NOF             NOF3            NO2             NO2CL          
 NO2F            NO3             NO3F            NCN             N2F2           
 N2F4            N2H2            NH2NO2          N2H4            N2O            
 N2O3            N2O4            N2O5            N3              N3H            
 *O              *O2             O3              *P              PCL            
 PCL2            PCL3            PCL5            PF              PFCL           
 PFCL2           PFCL4           PF2             PF2CL           PF2CL3         
 PF3CL2          PF4CL           PF5             POCL3           POFCL2         
 POF2CL          P2O4            P2O5            P3              P3O6           
 P4O6            P4O7            P4O8            P4O10           *S             
 SCL             SCL2            SF              SF2             SF3            
 SF4             SF5             SF6             SN              SO             
 SOF2            SO2             SO2CL2          SO2FCL          SO2F2          
 SO3             S2CL2           S2F2            S2O             S3             
 S4              S5              S6              S7              S8             
 Br2(cr)         Br2(L)          C(gr)           H2O(cr)         H2O(L)         
 H2SO4(L)        H3PO4(cr)       NH4CL(II)       NH4CL(III)      NH4F(cr)       
 NH4F(L)         P(cr)           P(L)            P4O10(cr)       P4O10(L)       
 S(a)            S(b)            S(L)            SCL2(L)         S2CL2(L)       



